
This summary file was generated by TurbSim (from OpenFAST-v3.5.0-dirty) on 30-Nov-2023 at 16:46:06.


Runtime Options:

   2318573  Random seed #1
    RANLUX  Type of random number generator
         F  Output binary HH turbulence parameters?
         F  Output formatted turbulence parameters?
         F  Output AeroDyn HH files?
         T  Output AeroDyn FF files?
         F  Output BLADED FF files?
         F  Output tower data?
         F  Output HAWC FF files?
         F  Output formatted FF files?
         T  Output coherent turbulence time step file?
 0 -  NONE  IEC turbulence models scaled to exact specified standard deviation


Turbine/Model Specifications:

        71  Vertical grid-point matrix dimension
      1183  Horizontal grid-point matrix dimension
     0.300  Time step [seconds]
    10.000  Analysis time [seconds]
    10.000  Usable output time [seconds]
   176.000  Hub height [m]
   350.000  Grid height [m]
  5910.000  Grid width [m]
     0.000  Vertical flow angle [degrees]
     0.000  Horizontal flow angle [degrees]


Meteorological Boundary Conditions:

    IECKAI  IEC Kaimal spectral model
         1  IEC standard: IEC 61400-1 Ed. 3: 2005
    10.000  Percent turbulence intensity, IEC 61400-1 Ed. 3: 2005
       NTM  IEC Normal Turbulence Model
       N/A  IEC Extreme Turbulence Model (ETM) "c" parameter [m/s]
       PL   Wind profile type
    88.500  Reference height [m]
    10.000  Reference wind speed [m/s]
       N/A  Jet height [m]
     0.200  Power law exponent
     0.030  Surface roughness length [m]


Non-IEC Meteorological Boundary Conditions:

       N/A  Site latitude [degrees]
       N/A  Gradient Richardson number
       N/A  Friction or shear velocity [m/s]
       N/A  Mixing layer depth [m]
       N/A  Mean hub u'w' Reynolds stress
       N/A  Mean hub u'v' Reynolds stress
       N/A  Mean hub v'w' Reynolds stress


Spatial Coherence Models:

       IEC  u-component coherence model
       IEC  v-component coherence model
       IEC  w-component coherence model
(   12.000, 0.353E-03)  u-component coherence parameters
(   12.000, 0.353E-03)  v-component coherence parameters
(   12.000, 0.353E-03)  w-component coherence parameters
       N/A  Coherence exponent


You have requested that the following file(s) be generated:

   ./Test/Cond00_v10.0_PL0.2_TI10/Seed_0/Low.bts (AeroDyn/TurbSim full-field wind file)


Turbulence Simulation Scaling Parameter Summary:

   Turbulence model used                            =  IEC Kaimal
   Turbulence characteristic                        =  User-specified
   IEC standard                                     =  IEC 61400-1 Ed. 3: 2005
   Mean wind speed at hub height                    =   11.474 m/s
   Characteristic value of standard deviation       =    1.147 m/s
   Turbulence scale                                 =   42.000 m
   u-component integral scale                       =  340.200 m
   Coherency scale                                  =  340.200 m
   Characteristic value of hub turbulence intensity =   10.000%
   Gradient Richardson number                       =    0.000

   Wind profile type                                =  Power law
   Power law exponent                               =    0.200
   Mean shear across rotor disk                     =    0.026 (m/s)/m
   Assumed rotor diameter                           =  350.000 m
   Surface roughness length                         =    0.030 m

   Nyquist frequency of turbulent wind field        =    1.667 Hz

   Number of time steps in the FFT                  =       34
   Number of time steps output                      =       34
   Number of points simulated                       =    83993


Mean Flow Angles:

   Vertical   =   0.0 degrees
   Horizontal =   0.0 degrees

Mean Wind Speed Profile:

   Height    Wind Speed   Horizontal Angle  Vertical Angle  U-comp (X)   V-comp (Y)   W-comp (Z)
     (m)        (m/s)         (degrees)       (degrees)       (m/s)        (m/s)        (m/s)   
   ------    ----------   ----------------  --------------  ----------   ----------   ----------
    351.0       13.17            0.00            0.00         13.17         0.00         0.00
    346.0       13.13            0.00            0.00         13.13         0.00         0.00
    341.0       13.10            0.00            0.00         13.10         0.00         0.00
    336.0       13.06            0.00            0.00         13.06         0.00         0.00
    331.0       13.02            0.00            0.00         13.02         0.00         0.00
    326.0       12.98            0.00            0.00         12.98         0.00         0.00
    321.0       12.94            0.00            0.00         12.94         0.00         0.00
    316.0       12.90            0.00            0.00         12.90         0.00         0.00
    311.0       12.86            0.00            0.00         12.86         0.00         0.00
    306.0       12.82            0.00            0.00         12.82         0.00         0.00
    301.0       12.77            0.00            0.00         12.77         0.00         0.00
    296.0       12.73            0.00            0.00         12.73         0.00         0.00
    291.0       12.69            0.00            0.00         12.69         0.00         0.00
    286.0       12.64            0.00            0.00         12.64         0.00         0.00
    281.0       12.60            0.00            0.00         12.60         0.00         0.00
    276.0       12.55            0.00            0.00         12.55         0.00         0.00
    271.0       12.51            0.00            0.00         12.51         0.00         0.00
    266.0       12.46            0.00            0.00         12.46         0.00         0.00
    261.0       12.41            0.00            0.00         12.41         0.00         0.00
    256.0       12.37            0.00            0.00         12.37         0.00         0.00
    251.0       12.32            0.00            0.00         12.32         0.00         0.00
    246.0       12.27            0.00            0.00         12.27         0.00         0.00
    241.0       12.22            0.00            0.00         12.22         0.00         0.00
    236.0       12.17            0.00            0.00         12.17         0.00         0.00
    231.0       12.12            0.00            0.00         12.12         0.00         0.00
    226.0       12.06            0.00            0.00         12.06         0.00         0.00
    221.0       12.01            0.00            0.00         12.01         0.00         0.00
    216.0       11.95            0.00            0.00         11.95         0.00         0.00
    211.0       11.90            0.00            0.00         11.90         0.00         0.00
    206.0       11.84            0.00            0.00         11.84         0.00         0.00
    201.0       11.78            0.00            0.00         11.78         0.00         0.00
    196.0       11.72            0.00            0.00         11.72         0.00         0.00
    191.0       11.66            0.00            0.00         11.66         0.00         0.00
    186.0       11.60            0.00            0.00         11.60         0.00         0.00
    181.0       11.54            0.00            0.00         11.54         0.00         0.00
    176.0       11.47            0.00            0.00         11.47         0.00         0.00
    171.0       11.41            0.00            0.00         11.41         0.00         0.00
    166.0       11.34            0.00            0.00         11.34         0.00         0.00
    161.0       11.27            0.00            0.00         11.27         0.00         0.00
    156.0       11.20            0.00            0.00         11.20         0.00         0.00
    151.0       11.13            0.00            0.00         11.13         0.00         0.00
    146.0       11.05            0.00            0.00         11.05         0.00         0.00
    141.0       10.98            0.00            0.00         10.98         0.00         0.00
    136.0       10.90            0.00            0.00         10.90         0.00         0.00
    131.0       10.82            0.00            0.00         10.82         0.00         0.00
    126.0       10.73            0.00            0.00         10.73         0.00         0.00
