
This summary file was generated by TurbSim (from OpenFAST-v3.4.1-dirty) on 14-Dec-2023 at 13:50:11.


Runtime Options:

   2318573  Random seed #1
    RANLUX  Type of random number generator
         F  Output binary HH turbulence parameters?
         F  Output formatted turbulence parameters?
         F  Output AeroDyn HH files?
         T  Output AeroDyn FF files?
         F  Output BLADED FF files?
         F  Output tower data?
         F  Output HAWC FF files?
         F  Output formatted FF files?
         T  Output coherent turbulence time step file?
 0 -  NONE  IEC turbulence models scaled to exact specified standard deviation


Turbine/Model Specifications:

        15  Vertical grid-point matrix dimension
       239  Horizontal grid-point matrix dimension
     0.300  Time step [seconds]
    10.000  Analysis time [seconds]
    10.000  Usable output time [seconds]
   176.000  Hub height [m]
   350.000  Grid height [m]
  5950.000  Grid width [m]
     0.000  Vertical flow angle [degrees]
     0.000  Horizontal flow angle [degrees]


Meteorological Boundary Conditions:

    IECKAI  IEC Kaimal spectral model
         1  IEC standard: IEC 61400-1 Ed. 3: 2005
    10.000  Percent turbulence intensity, IEC 61400-1 Ed. 3: 2005
       NTM  IEC Normal Turbulence Model
       N/A  IEC Extreme Turbulence Model (ETM) "c" parameter [m/s]
       PL   Wind profile type
    88.500  Reference height [m]
    10.000  Reference wind speed [m/s]
       N/A  Jet height [m]
     0.200  Power law exponent
     0.030  Surface roughness length [m]


Non-IEC Meteorological Boundary Conditions:

       N/A  Site latitude [degrees]
       N/A  Gradient Richardson number
       N/A  Friction or shear velocity [m/s]
       N/A  Mixing layer depth [m]
       N/A  Mean hub u'w' Reynolds stress
       N/A  Mean hub u'v' Reynolds stress
       N/A  Mean hub v'w' Reynolds stress


Spatial Coherence Models:

       IEC  u-component coherence model
       IEC  v-component coherence model
       IEC  w-component coherence model
(   12.000, 0.353E-03)  u-component coherence parameters
(   12.000, 0.353E-03)  v-component coherence parameters
(   12.000, 0.353E-03)  w-component coherence parameters
       N/A  Coherence exponent


You have requested that the following file(s) be generated:

   ./Test/Cond00_v10.0_PL0.2_TI10/Seed_0/Low.bts (AeroDyn/TurbSim full-field wind file)


Turbulence Simulation Scaling Parameter Summary:

   Turbulence model used                            =  IEC Kaimal
   Turbulence characteristic                        =  User-specified
   IEC standard                                     =  IEC 61400-1 Ed. 3: 2005
   Mean wind speed at hub height                    =   11.474 m/s
   Characteristic value of standard deviation       =    1.147 m/s
   Turbulence scale                                 =   42.000 m
   u-component integral scale                       =  340.200 m
   Coherency scale                                  =  340.200 m
   Characteristic value of hub turbulence intensity =   10.000%
   Gradient Richardson number                       =    0.000

   Wind profile type                                =  Power law
   Power law exponent                               =    0.200
   Mean shear across rotor disk                     =    0.026 (m/s)/m
   Assumed rotor diameter                           =  350.000 m
   Surface roughness length                         =    0.030 m

   Nyquist frequency of turbulent wind field        =    1.667 Hz

   Number of time steps in the FFT                  =       34
   Number of time steps output                      =       34
   Number of points simulated                       =     3585


Mean Flow Angles:

   Vertical   =   0.0 degrees
   Horizontal =   0.0 degrees

Mean Wind Speed Profile:

   Height    Wind Speed   Horizontal Angle  Vertical Angle  U-comp (X)   V-comp (Y)   W-comp (Z)
     (m)        (m/s)         (degrees)       (degrees)       (m/s)        (m/s)        (m/s)   
   ------    ----------   ----------------  --------------  ----------   ----------   ----------
    351.0       13.17            0.00            0.00         13.17         0.00         0.00
    326.0       12.98            0.00            0.00         12.98         0.00         0.00
    301.0       12.77            0.00            0.00         12.77         0.00         0.00
    276.0       12.55            0.00            0.00         12.55         0.00         0.00
    251.0       12.32            0.00            0.00         12.32         0.00         0.00
    226.0       12.06            0.00            0.00         12.06         0.00         0.00
    201.0       11.78            0.00            0.00         11.78         0.00         0.00
    176.0       11.47            0.00            0.00         11.47         0.00         0.00
    151.0       11.13            0.00            0.00         11.13         0.00         0.00
    126.0       10.73            0.00            0.00         10.73         0.00         0.00
    101.0       10.27            0.00            0.00         10.27         0.00         0.00
     76.0        9.70            0.00            0.00          9.70         0.00         0.00
     51.0        8.96            0.00            0.00          8.96         0.00         0.00
     26.0        7.83            0.00            0.00          7.83         0.00         0.00
      1.0        4.08            0.00            0.00          4.08         0.00         0.00


Harvested Random Seeds after Generation of the Random Numbers:

      1698817 K 1
            0 K 2


Hub-Height Simulated Turbulence Statistical Summary:

   Type of Wind        Min (m/s)   Mean (m/s)    Max (m/s)  Sigma (m/s)       TI (%)
   ----------------    ---------   ----------    ---------  -----------       ------
   Longitudinal (u)        10.34        11.47        12.38        0.474        4.130
   Lateral (v)             -1.57        -0.00         1.19        0.544        4.743
   Vertical (w)            -0.96         0.00         0.93        0.408        3.552
   U component             10.34        11.47        12.38        0.474        4.130
   V component             -1.57        -0.00         1.19        0.544        4.743
   W component             -0.96         0.00         0.93        0.408        3.552
   Horizontal (U&V)        10.34        11.49        12.38        0.473        4.122
   Total                   10.35        11.49        12.38        0.473        4.114

                       Min Reynolds     Mean Reynolds    Max Reynolds    Correlation
   Product             Stress (m/s)^2   Stress (m/s)^2   Stress (m/s)^2  Coefficient
   ----------------    --------------   --------------   --------------  -----------
   u'w'                     -0.509             0.024             0.502         0.123
   u'v'                     -0.174             0.106             0.600         0.411
   v'w'                     -0.505            -0.053             0.362        -0.238


   Friction Velocity (Ustar)  =      0.154 m/s
   Maximum Instantaneous TKE  =      1.268 (m/s)^2
   Maximum Instantaneous CTKE =      0.359 (m/s)^2


Grid Point Variance Summary:

   Y-coord-2975.00-2950.00-2925.00-2900.00-2875.00-2850.00-2825.00-2800.00-2775.00-2750.00-2725.00-2700.00-2675.00-2650.00-2625.00-2600.00-2575.00-2550.00-2525.00-2500.00-2475.00-2450.00-2425.00-2400.00-2375.00-2350.00-2325.00-2300.00-2275.00-2250.00-2225.00-2200.00-2175.00-2150.00-2125.00-2100.00-2075.00-2050.00-2025.00-2000.00-1975.00-1950.00-1925.00-1900.00-1875.00-1850.00-1825.00-1800.00-1775.00-1750.00-1725.00-1700.00-1675.00-1650.00-1625.00-1600.00-1575.00-1550.00-1525.00-1500.00-1475.00-1450.00-1425.00-1400.00-1375.00-1350.00-1325.00-1300.00-1275.00-1250.00-1225.00-1200.00-1175.00-1150.00-1125.00-1100.00-1075.00-1050.00-1025.00-1000.00 -975.00 -950.00 -925.00 -900.00 -875.00 -850.00 -825.00 -800.00 -775.00 -750.00 -725.00 -700.00 -675.00 -650.00 -625.00 -600.00 -575.00 -550.00 -525.00 -500.00 -475.00 -450.00 -425.00 -400.00 -375.00 -350.00 -325.00 -300.00 -275.00 -250.00 -225.00 -200.00 -175.00 -150.00 -125.00 -100.00  -75.00  -50.00  -25.00    0.00   25.00   50.00   75.00  100.00  125.00  150.00  175.00  200.00  225.00  250.00  275.00  300.00  325.00  350.00  375.00  400.00  425.00  450.00  475.00  500.00  525.00  550.00  575.00  600.00  625.00  650.00  675.00  700.00  725.00  750.00  775.00  800.00  825.00  850.00  875.00  900.00  925.00  950.00  975.00 1000.00 1025.00 1050.00 1075.00 1100.00 1125.00 1150.00 1175.00 1200.00 1225.00 1250.00 1275.00 1300.00 1325.00 1350.00 1375.00 1400.00 1425.00 1450.00 1475.00 1500.00 1525.00 1550.00 1575.00 1600.00 1625.00 1650.00 1675.00 1700.00 1725.00 1750.00 1775.00 1800.00 1825.00 1850.00 1875.00 1900.00 1925.00 1950.00 1975.00 2000.00 2025.00 2050.00 2075.00 2100.00 2125.00 2150.00 2175.00 2200.00 2225.00 2250.00 2275.00 2300.00 2325.00 2350.00 2375.00 2400.00 2425.00 2450.00 2475.00 2500.00 2525.00 2550.00 2575.00 2600.00 2625.00 2650.00 2675.00 2700.00 2725.00 2750.00 2775.00 2800.00 2825.00 2850.00 2875.00 2900.00 2925.00 2950.00 2975.00

   Height   Standard deviation at grid points for the u component:
   351.00    0.459   0.489   0.519   0.506   0.489   0.466   0.483   0.487   0.453   0.470   0.476   0.494   0.461   0.500   0.470   0.474   0.484   0.479   0.478   0.474   0.483   0.458   0.511   0.443   0.477   0.505   0.456   0.507   0.517   0.496   0.505   0.491   0.506   0.445   0.473   0.457   0.480   0.480   0.495   0.474   0.489   0.502   0.454   0.511   0.483   0.467   0.500   0.472   0.458   0.462   0.481   0.483   0.450   0.509   0.459   0.451   0.504   0.516   0.498   0.487   0.486   0.492   0.462   0.486   0.488   0.443   0.482   0.453   0.479   0.509   0.486   0.462   0.487   0.468   0.483   0.475   0.485   0.454   0.491   0.464   0.503   0.474   0.508   0.501   0.491   0.490   0.487   0.497   0.479   0.494   0.503   0.444   0.494   0.511   0.490   0.463   0.497   0.445   0.488   0.439   0.468   0.473   0.463   0.487   0.445   0.467   0.492   0.464   0.461   0.475   0.490   0.480   0.471   0.448   0.501   0.457   0.494   0.481   0.474   0.458   0.502   0.503   0.467   0.515   0.507   0.485   0.505   0.490   0.451   0.457   0.461   0.492   0.470   0.512   0.446   0.479   0.472   0.461   0.451   0.475   0.482   0.523   0.444   0.469   0.505   0.469   0.465   0.465   0.471   0.494   0.495   0.476   0.457   0.495   0.487   0.498   0.462   0.465   0.464   0.469   0.478   0.476   0.479   0.481   0.483   0.479   0.489   0.447   0.501   0.521   0.441   0.480   0.497   0.461   0.471   0.485   0.449   0.474   0.464   0.504   0.453   0.471   0.473   0.453   0.494   0.489   0.508   0.493   0.508   0.492   0.492   0.486   0.508   0.491   0.467   0.499   0.503   0.521   0.503   0.471   0.503   0.472   0.475   0.476   0.473   0.501   0.503   0.499   0.465   0.468   0.465   0.490   0.475   0.472   0.473   0.484   0.504   0.493   0.456   0.492   0.472   0.458   0.484   0.461   0.478   0.488   0.518   0.496   0.489   0.496   0.454   0.457   0.466   0.485   0.506   0.502   0.484   0.473   0.487
   326.00    0.475   0.503   0.487   0.499   0.445   0.484   0.469   0.463   0.461   0.492   0.490   0.472   0.489   0.482   0.460   0.479   0.482   0.487   0.498   0.466   0.476   0.451   0.482   0.493   0.492   0.462   0.476   0.459   0.512   0.467   0.479   0.479   0.475   0.504   0.460   0.472   0.511   0.462   0.471   0.471   0.461   0.483   0.477   0.506   0.441   0.491   0.475   0.444   0.505   0.440   0.481   0.480   0.521   0.443   0.461   0.499   0.474   0.475   0.459   0.480   0.469   0.469   0.480   0.512   0.458   0.470   0.462   0.475   0.481   0.478   0.499   0.511   0.484   0.461   0.488   0.494   0.517   0.459   0.503   0.447   0.447   0.480   0.478   0.486   0.447   0.479   0.466   0.471   0.474   0.487   0.486   0.489   0.463   0.514   0.465   0.465   0.502   0.479   0.475   0.503   0.476   0.488   0.454   0.476   0.492   0.451   0.476   0.476   0.502   0.455   0.474   0.464   0.468   0.464   0.505   0.455   0.472   0.453   0.462   0.467   0.473   0.462   0.477   0.502   0.495   0.509   0.463   0.479   0.520   0.485   0.482   0.498   0.472   0.487   0.499   0.476   0.482   0.469   0.485   0.485   0.470   0.519   0.507   0.472   0.445   0.471   0.468   0.471   0.456   0.502   0.488   0.486   0.469   0.513   0.442   0.482   0.480   0.478   0.486   0.475   0.471   0.462   0.474   0.459   0.471   0.487   0.457   0.463   0.492   0.485   0.495   0.482   0.495   0.468   0.507   0.495   0.498   0.454   0.476   0.471   0.516   0.488   0.483   0.472   0.456   0.464   0.462   0.477   0.473   0.508   0.469   0.473   0.472   0.460   0.493   0.495   0.448   0.497   0.502   0.499   0.465   0.466   0.493   0.475   0.497   0.494   0.476   0.493   0.480   0.475   0.496   0.497   0.457   0.490   0.483   0.462   0.504   0.478   0.459   0.474   0.471   0.452   0.483   0.446   0.492   0.506   0.488   0.463   0.470   0.464   0.499   0.472   0.461   0.486   0.470   0.501   0.458   0.501   0.450
   301.00    0.487   0.478   0.449   0.463   0.502   0.491   0.465   0.505   0.494   0.493   0.475   0.501   0.493   0.472   0.491   0.483   0.514   0.489   0.514   0.478   0.446   0.459   0.467   0.486   0.477   0.470   0.496   0.448   0.465   0.501   0.470   0.503   0.462   0.483   0.498   0.463   0.459   0.463   0.498   0.483   0.476   0.493   0.480   0.513   0.502   0.492   0.459   0.497   0.476   0.493   0.498   0.455   0.505   0.501   0.485   0.511   0.451   0.480   0.521   0.497   0.472   0.482   0.492   0.476   0.476   0.477   0.495   0.494   0.491   0.452   0.500   0.513   0.443   0.482   0.507   0.488   0.501   0.511   0.495   0.511   0.513   0.522   0.496   0.453   0.483   0.506   0.477   0.501   0.486   0.464   0.520   0.442   0.477   0.464   0.494   0.488   0.510   0.463   0.512   0.522   0.504   0.470   0.471   0.463   0.477   0.496   0.479   0.463   0.472   0.482   0.474   0.481   0.475   0.496   0.481   0.480   0.492   0.506   0.489   0.479   0.473   0.481   0.500   0.491   0.508   0.490   0.489   0.493   0.478   0.485   0.460   0.454   0.482   0.470   0.472   0.465   0.485   0.501   0.496   0.451   0.500   0.460   0.513   0.520   0.465   0.483   0.458   0.460   0.485   0.474   0.483   0.450   0.507   0.505   0.502   0.487   0.495   0.509   0.482   0.471   0.484   0.502   0.477   0.493   0.456   0.481   0.470   0.490   0.495   0.452   0.477   0.460   0.450   0.478   0.451   0.478   0.500   0.465   0.481   0.470   0.487   0.509   0.468   0.475   0.512   0.514   0.454   0.487   0.456   0.469   0.481   0.465   0.492   0.474   0.476   0.476   0.508   0.457   0.504   0.492   0.461   0.514   0.437   0.474   0.455   0.469   0.494   0.477   0.469   0.492   0.499   0.491   0.452   0.477   0.495   0.494   0.489   0.441   0.471   0.479   0.480   0.491   0.458   0.476   0.491   0.509   0.464   0.466   0.500   0.516   0.494   0.461   0.469   0.466   0.446   0.480   0.503   0.452   0.500
   276.00    0.490   0.479   0.498   0.449   0.465   0.469   0.461   0.455   0.467   0.461   0.497   0.456   0.457   0.451   0.481   0.489   0.480   0.513   0.516   0.464   0.494   0.485   0.489   0.469   0.471   0.471   0.488   0.506   0.467   0.481   0.519   0.482   0.470   0.460   0.456   0.455   0.475   0.485   0.469   0.454   0.488   0.445   0.485   0.467   0.496   0.464   0.465   0.504   0.461   0.455   0.477   0.460   0.471   0.464   0.473   0.470   0.506   0.521   0.518   0.508   0.448   0.454   0.494   0.461   0.456   0.468   0.480   0.476   0.494   0.482   0.490   0.508   0.510   0.469   0.471   0.444   0.481   0.481   0.463   0.482   0.518   0.514   0.486   0.467   0.471   0.471   0.473   0.486   0.459   0.494   0.492   0.521   0.456   0.470   0.480   0.478   0.462   0.479   0.523   0.529   0.478   0.498   0.504   0.510   0.487   0.467   0.476   0.500   0.459   0.457   0.468   0.480   0.467   0.468   0.492   0.499   0.454   0.509   0.445   0.497   0.459   0.500   0.499   0.454   0.502   0.467   0.482   0.466   0.493   0.468   0.505   0.474   0.486   0.464   0.448   0.495   0.514   0.492   0.445   0.485   0.474   0.479   0.462   0.497   0.513   0.492   0.447   0.479   0.470   0.469   0.487   0.509   0.479   0.473   0.459   0.458   0.469   0.471   0.475   0.480   0.478   0.453   0.491   0.474   0.515   0.471   0.490   0.458   0.498   0.508   0.447   0.463   0.480   0.474   0.465   0.478   0.497   0.459   0.471   0.492   0.484   0.490   0.460   0.485   0.487   0.473   0.477   0.458   0.472   0.489   0.454   0.461   0.491   0.470   0.510   0.475   0.449   0.493   0.495   0.468   0.518   0.452   0.475   0.496   0.450   0.476   0.494   0.493   0.511   0.453   0.448   0.472   0.463   0.491   0.467   0.457   0.476   0.516   0.493   0.469   0.480   0.498   0.491   0.463   0.492   0.463   0.483   0.470   0.499   0.493   0.473   0.457   0.481   0.475   0.476   0.466   0.474   0.469   0.451
   251.00    0.464   0.467   0.455   0.501   0.468   0.484   0.496   0.453   0.491   0.524   0.515   0.503   0.463   0.478   0.491   0.464   0.481   0.484   0.478   0.482   0.473   0.487   0.464   0.482   0.517   0.441   0.471   0.459   0.476   0.485   0.494   0.518   0.466   0.487   0.472   0.467   0.505   0.470   0.479   0.495   0.471   0.492   0.480   0.479   0.451   0.498   0.521   0.449   0.481   0.462   0.474   0.483   0.503   0.460   0.470   0.474   0.450   0.485   0.484   0.492   0.466   0.477   0.478   0.480   0.516   0.444   0.503   0.518   0.453   0.497   0.462   0.473   0.449   0.491   0.483   0.485   0.471   0.476   0.489   0.469   0.507   0.491   0.463   0.484   0.467   0.484   0.463   0.469   0.460   0.494   0.484   0.473   0.474   0.476   0.451   0.462   0.490   0.448   0.484   0.488   0.488   0.489   0.471   0.487   0.473   0.472   0.476   0.486   0.479   0.478   0.454   0.467   0.500   0.497   0.511   0.456   0.508   0.443   0.483   0.492   0.459   0.478   0.485   0.480   0.510   0.522   0.478   0.473   0.478   0.495   0.482   0.490   0.490   0.480   0.506   0.499   0.502   0.470   0.508   0.500   0.484   0.480   0.457   0.460   0.498   0.472   0.499   0.502   0.457   0.477   0.498   0.516   0.459   0.477   0.515   0.448   0.499   0.515   0.494   0.490   0.507   0.494   0.457   0.482   0.483   0.480   0.518   0.473   0.482   0.453   0.499   0.472   0.480   0.498   0.490   0.506   0.470   0.456   0.501   0.468   0.466   0.491   0.459   0.478   0.502   0.487   0.486   0.448   0.491   0.513   0.485   0.480   0.486   0.470   0.483   0.463   0.461   0.499   0.472   0.460   0.484   0.497   0.496   0.482   0.470   0.492   0.492   0.471   0.495   0.501   0.454   0.508   0.446   0.481   0.482   0.462   0.466   0.491   0.475   0.477   0.465   0.486   0.481   0.453   0.483   0.504   0.465   0.503   0.488   0.464   0.475   0.495   0.457   0.510   0.453   0.463   0.509   0.462   0.494
   226.00    0.470   0.484   0.462   0.459   0.459   0.474   0.457   0.449   0.484   0.513   0.506   0.505   0.447   0.463   0.461   0.487   0.487   0.460   0.501   0.477   0.468   0.486   0.513   0.511   0.490   0.506   0.483   0.474   0.461   0.487   0.479   0.452   0.484   0.478   0.466   0.484   0.472   0.476   0.462   0.474   0.467   0.460   0.474   0.476   0.488   0.476   0.463   0.505   0.481   0.505   0.481   0.500   0.439   0.476   0.480   0.495   0.463   0.486   0.473   0.457   0.504   0.481   0.487   0.468   0.488   0.487   0.508   0.509   0.476   0.464   0.474   0.481   0.474   0.485   0.491   0.460   0.475   0.493   0.482   0.480   0.479   0.475   0.469   0.476   0.483   0.484   0.474   0.469   0.445   0.482   0.456   0.495   0.513   0.478   0.496   0.518   0.484   0.513   0.511   0.469   0.512   0.469   0.454   0.466   0.494   0.492   0.467   0.498   0.471   0.498   0.509   0.489   0.491   0.469   0.510   0.466   0.495   0.483   0.495   0.475   0.465   0.481   0.519   0.482   0.500   0.478   0.516   0.501   0.470   0.472   0.493   0.452   0.451   0.497   0.484   0.487   0.483   0.467   0.480   0.455   0.461   0.479   0.471   0.478   0.449   0.464   0.464   0.507   0.505   0.449   0.476   0.483   0.492   0.478   0.443   0.472   0.460   0.466   0.463   0.467   0.490   0.460   0.465   0.496   0.443   0.490   0.472   0.500   0.455   0.481   0.468   0.468   0.464   0.497   0.496   0.484   0.471   0.462   0.462   0.481   0.475   0.488   0.489   0.501   0.479   0.499   0.462   0.482   0.465   0.486   0.478   0.445   0.499   0.456   0.499   0.493   0.481   0.455   0.479   0.500   0.477   0.471   0.485   0.481   0.515   0.485   0.444   0.473   0.471   0.466   0.487   0.459   0.499   0.443   0.474   0.512   0.501   0.484   0.525   0.469   0.479   0.486   0.464   0.466   0.483   0.448   0.473   0.478   0.454   0.484   0.507   0.466   0.467   0.451   0.473   0.472   0.467   0.469   0.490
   201.00    0.466   0.509   0.517   0.482   0.483   0.450   0.451   0.467   0.485   0.513   0.529   0.462   0.508   0.476   0.483   0.473   0.509   0.474   0.507   0.458   0.489   0.465   0.447   0.492   0.470   0.445   0.480   0.483   0.468   0.467   0.501   0.476   0.490   0.474   0.462   0.497   0.459   0.455   0.468   0.474   0.450   0.474   0.463   0.491   0.496   0.502   0.517   0.476   0.451   0.484   0.498   0.470   0.484   0.476   0.451   0.493   0.479   0.473   0.458   0.499   0.467   0.477   0.498   0.482   0.453   0.457   0.468   0.472   0.456   0.453   0.468   0.510   0.513   0.488   0.488   0.489   0.471   0.490   0.446   0.487   0.478   0.461   0.496   0.451   0.489   0.447   0.471   0.484   0.493   0.478   0.474   0.472   0.512   0.442   0.482   0.499   0.461   0.462   0.470   0.459   0.514   0.512   0.471   0.473   0.460   0.480   0.459   0.455   0.463   0.485   0.473   0.461   0.482   0.498   0.494   0.487   0.518   0.509   0.450   0.490   0.503   0.495   0.512   0.479   0.463   0.488   0.458   0.479   0.451   0.465   0.481   0.481   0.473   0.507   0.511   0.491   0.450   0.490   0.452   0.504   0.467   0.490   0.442   0.488   0.503   0.516   0.451   0.496   0.464   0.491   0.474   0.460   0.479   0.469   0.511   0.526   0.466   0.510   0.455   0.486   0.472   0.490   0.446   0.485   0.463   0.499   0.467   0.474   0.478   0.490   0.505   0.474   0.495   0.449   0.484   0.463   0.459   0.504   0.474   0.474   0.465   0.492   0.510   0.479   0.489   0.489   0.491   0.481   0.463   0.467   0.497   0.494   0.517   0.446   0.491   0.461   0.484   0.460   0.480   0.496   0.463   0.493   0.454   0.471   0.487   0.514   0.492   0.472   0.481   0.474   0.484   0.461   0.484   0.457   0.464   0.479   0.504   0.501   0.510   0.484   0.485   0.483   0.495   0.513   0.492   0.458   0.484   0.488   0.477   0.482   0.495   0.466   0.502   0.450   0.492   0.471   0.474   0.465   0.484
   176.00    0.483   0.490   0.491   0.484   0.461   0.482   0.475   0.486   0.494   0.508   0.515   0.486   0.467   0.485   0.486   0.492   0.484   0.473   0.466   0.503   0.505   0.467   0.483   0.470   0.478   0.466   0.487   0.509   0.478   0.476   0.450   0.473   0.449   0.484   0.480   0.494   0.501   0.452   0.477   0.473   0.464   0.497   0.515   0.471   0.446   0.462   0.494   0.508   0.446   0.503   0.470   0.493   0.488   0.510   0.468   0.461   0.476   0.502   0.468   0.467   0.462   0.483   0.482   0.480   0.446   0.470   0.497   0.498   0.470   0.474   0.499   0.488   0.480   0.450   0.488   0.484   0.475   0.477   0.496   0.513   0.507   0.442   0.470   0.476   0.459   0.486   0.464   0.486   0.501   0.473   0.510   0.475   0.488   0.504   0.488   0.458   0.504   0.478   0.454   0.468   0.482   0.492   0.513   0.457   0.486   0.498   0.468   0.469   0.469   0.470   0.483   0.458   0.478   0.479   0.505   0.439   0.505   0.523   0.476   0.474   0.478   0.447   0.485   0.474   0.457   0.497   0.468   0.490   0.451   0.506   0.526   0.478   0.467   0.490   0.490   0.465   0.473   0.490   0.489   0.470   0.476   0.468   0.469   0.509   0.489   0.480   0.485   0.457   0.468   0.471   0.506   0.451   0.470   0.471   0.515   0.519   0.514   0.475   0.456   0.466   0.485   0.506   0.465   0.489   0.486   0.494   0.486   0.483   0.471   0.481   0.475   0.452   0.477   0.485   0.455   0.469   0.490   0.486   0.488   0.460   0.476   0.481   0.501   0.508   0.507   0.492   0.443   0.455   0.467   0.460   0.488   0.460   0.482   0.524   0.527   0.524   0.519   0.473   0.497   0.451   0.480   0.502   0.516   0.462   0.494   0.487   0.486   0.483   0.481   0.441   0.487   0.482   0.486   0.497   0.483   0.510   0.451   0.457   0.479   0.467   0.485   0.481   0.484   0.492   0.453   0.476   0.503   0.487   0.472   0.464   0.495   0.498   0.462   0.475   0.489   0.481   0.452   0.490   0.478
   151.00    0.499   0.442   0.463   0.488   0.473   0.471   0.488   0.480   0.464   0.498   0.487   0.469   0.502   0.491   0.502   0.480   0.489   0.465   0.474   0.470   0.460   0.482   0.468   0.505   0.481   0.506   0.502   0.483   0.444   0.482   0.483   0.461   0.515   0.486   0.472   0.474   0.478   0.487   0.484   0.504   0.458   0.483   0.473   0.461   0.488   0.514   0.507   0.501   0.499   0.471   0.472   0.503   0.478   0.474   0.458   0.472   0.463   0.456   0.476   0.493   0.465   0.483   0.464   0.476   0.496   0.479   0.456   0.465   0.453   0.496   0.519   0.487   0.483   0.483   0.484   0.500   0.499   0.461   0.500   0.460   0.477   0.493   0.484   0.503   0.480   0.499   0.488   0.503   0.472   0.501   0.480   0.479   0.467   0.475   0.459   0.474   0.475   0.481   0.500   0.513   0.467   0.484   0.490   0.460   0.486   0.521   0.482   0.451   0.484   0.479   0.459   0.497   0.452   0.509   0.504   0.491   0.488   0.497   0.507   0.498   0.513   0.450   0.496   0.477   0.483   0.491   0.485   0.461   0.482   0.515   0.499   0.522   0.465   0.493   0.453   0.466   0.462   0.514   0.472   0.457   0.477   0.490   0.516   0.465   0.469   0.441   0.490   0.519   0.517   0.507   0.480   0.505   0.452   0.489   0.484   0.496   0.464   0.460   0.477   0.463   0.475   0.477   0.470   0.483   0.454   0.473   0.450   0.509   0.484   0.464   0.455   0.465   0.468   0.476   0.465   0.479   0.456   0.483   0.445   0.472   0.493   0.513   0.473   0.470   0.463   0.481   0.515   0.463   0.465   0.482   0.515   0.460   0.470   0.485   0.483   0.475   0.484   0.476   0.486   0.509   0.477   0.446   0.468   0.479   0.485   0.490   0.464   0.461   0.466   0.483   0.480   0.455   0.481   0.495   0.473   0.486   0.471   0.455   0.501   0.482   0.478   0.465   0.448   0.491   0.488   0.512   0.473   0.465   0.505   0.485   0.500   0.473   0.477   0.470   0.489   0.483   0.470   0.489   0.473
   126.00    0.467   0.478   0.514   0.515   0.455   0.472   0.460   0.451   0.472   0.491   0.515   0.448   0.496   0.472   0.458   0.455   0.472   0.491   0.466   0.487   0.452   0.485   0.506   0.512   0.440   0.470   0.477   0.470   0.502   0.503   0.516   0.450   0.472   0.478   0.477   0.487   0.483   0.484   0.490   0.474   0.469   0.512   0.459   0.456   0.495   0.481   0.461   0.456   0.467   0.462   0.470   0.514   0.450   0.495   0.471   0.491   0.495   0.500   0.461   0.476   0.494   0.487   0.477   0.493   0.477   0.475   0.473   0.481   0.492   0.481   0.514   0.469   0.442   0.480   0.466   0.494   0.506   0.449   0.485   0.467   0.508   0.441   0.493   0.476   0.485   0.461   0.468   0.479   0.469   0.475   0.487   0.490   0.445   0.487   0.455   0.484   0.454   0.453   0.485   0.463   0.495   0.473   0.483   0.460   0.497   0.521   0.473   0.497   0.524   0.441   0.478   0.513   0.502   0.471   0.478   0.479   0.463   0.461   0.504   0.444   0.472   0.477   0.468   0.479   0.478   0.517   0.493   0.487   0.458   0.508   0.461   0.495   0.490   0.485   0.491   0.493   0.470   0.507   0.478   0.492   0.490   0.485   0.492   0.468   0.470   0.498   0.518   0.489   0.514   0.504   0.455   0.484   0.503   0.515   0.463   0.488   0.469   0.489   0.508   0.494   0.501   0.463   0.462   0.483   0.467   0.478   0.494   0.480   0.471   0.499   0.497   0.509   0.455   0.481   0.452   0.469   0.489   0.477   0.483   0.512   0.467   0.497   0.449   0.500   0.516   0.484   0.461   0.486   0.471   0.466   0.466   0.476   0.476   0.461   0.482   0.471   0.481   0.461   0.488   0.526   0.437   0.489   0.504   0.523   0.435   0.478   0.505   0.475   0.517   0.495   0.469   0.453   0.501   0.461   0.450   0.455   0.484   0.483   0.452   0.458   0.470   0.481   0.480   0.470   0.470   0.488   0.507   0.465   0.479   0.466   0.448   0.486   0.513   0.446   0.469   0.480   0.483   0.441   0.493
   101.00    0.485   0.495   0.463   0.508   0.513   0.511   0.497   0.468   0.465   0.468   0.483   0.506   0.502   0.494   0.465   0.476   0.494   0.463   0.445   0.475   0.500   0.488   0.468   0.483   0.488   0.493   0.509   0.469   0.473   0.484   0.477   0.493   0.475   0.520   0.492   0.514   0.472   0.504   0.483   0.461   0.467   0.510   0.445   0.476   0.470   0.485   0.482   0.484   0.448   0.492   0.452   0.492   0.500   0.514   0.461   0.483   0.499   0.442   0.465   0.483   0.473   0.454   0.464   0.477   0.497   0.492   0.492   0.454   0.491   0.475   0.482   0.494   0.487   0.489   0.511   0.466   0.484   0.506   0.486   0.486   0.445   0.491   0.506   0.455   0.482   0.509   0.463   0.467   0.454   0.484   0.439   0.481   0.482   0.493   0.469   0.487   0.471   0.465   0.489   0.479   0.470   0.470   0.467   0.494   0.493   0.516   0.468   0.474   0.479   0.477   0.475   0.496   0.492   0.493   0.446   0.461   0.502   0.477   0.519   0.516   0.510   0.498   0.494   0.474   0.475   0.475   0.493   0.453   0.456   0.486   0.463   0.504   0.467   0.442   0.499   0.472   0.472   0.479   0.505   0.456   0.459   0.504   0.508   0.449   0.501   0.445   0.506   0.480   0.511   0.520   0.460   0.493   0.518   0.460   0.481   0.449   0.510   0.478   0.479   0.461   0.471   0.488   0.513   0.493   0.481   0.468   0.490   0.467   0.483   0.470   0.477   0.509   0.489   0.475   0.489   0.513   0.461   0.473   0.459   0.486   0.457   0.478   0.474   0.478   0.484   0.472   0.478   0.488   0.452   0.467   0.474   0.465   0.472   0.504   0.498   0.479   0.445   0.492   0.496   0.527   0.520   0.510   0.481   0.525   0.529   0.504   0.460   0.489   0.495   0.486   0.461   0.488   0.449   0.498   0.494   0.475   0.487   0.483   0.488   0.455   0.480   0.491   0.487   0.489   0.453   0.462   0.453   0.481   0.512   0.453   0.454   0.504   0.484   0.488   0.459   0.462   0.491   0.507   0.479
    76.00    0.462   0.479   0.464   0.462   0.466   0.476   0.477   0.496   0.520   0.462   0.481   0.494   0.519   0.443   0.497   0.489   0.464   0.514   0.470   0.509   0.448   0.485   0.466   0.460   0.482   0.448   0.487   0.490   0.474   0.477   0.451   0.478   0.492   0.492   0.518   0.474   0.491   0.452   0.456   0.472   0.476   0.464   0.500   0.502   0.445   0.465   0.496   0.459   0.475   0.504   0.500   0.505   0.462   0.487   0.463   0.482   0.467   0.493   0.484   0.466   0.494   0.525   0.446   0.481   0.457   0.487   0.494   0.486   0.474   0.480   0.445   0.467   0.478   0.479   0.509   0.475   0.453   0.488   0.456   0.458   0.467   0.484   0.500   0.462   0.516   0.451   0.482   0.485   0.483   0.455   0.502   0.482   0.475   0.472   0.483   0.500   0.506   0.512   0.484   0.481   0.458   0.472   0.515   0.524   0.504   0.470   0.486   0.474   0.485   0.498   0.497   0.488   0.468   0.474   0.486   0.456   0.455   0.476   0.506   0.482   0.488   0.494   0.501   0.461   0.477   0.483   0.502   0.490   0.493   0.491   0.482   0.482   0.489   0.509   0.514   0.492   0.490   0.470   0.485   0.499   0.512   0.476   0.465   0.499   0.503   0.496   0.479   0.481   0.510   0.507   0.468   0.484   0.484   0.468   0.479   0.477   0.481   0.504   0.467   0.490   0.496   0.492   0.476   0.465   0.451   0.473   0.513   0.466   0.480   0.501   0.522   0.479   0.472   0.477   0.502   0.516   0.439   0.479   0.514   0.459   0.450   0.500   0.472   0.489   0.452   0.497   0.471   0.480   0.496   0.486   0.478   0.484   0.480   0.501   0.474   0.497   0.497   0.453   0.495   0.524   0.492   0.471   0.479   0.471   0.477   0.480   0.496   0.505   0.484   0.499   0.467   0.475   0.493   0.466   0.488   0.473   0.445   0.496   0.442   0.493   0.448   0.505   0.504   0.497   0.450   0.458   0.492   0.503   0.478   0.489   0.494   0.461   0.486   0.496   0.512   0.464   0.488   0.462   0.497
    51.00    0.471   0.508   0.451   0.460   0.506   0.489   0.513   0.481   0.478   0.488   0.501   0.467   0.484   0.502   0.493   0.494   0.480   0.488   0.475   0.474   0.487   0.464   0.474   0.451   0.498   0.486   0.503   0.496   0.449   0.460   0.492   0.488   0.467   0.455   0.508   0.440   0.484   0.495   0.509   0.497   0.447   0.485   0.452   0.471   0.507   0.523   0.467   0.477   0.462   0.475   0.505   0.470   0.489   0.451   0.462   0.491   0.491   0.482   0.471   0.488   0.492   0.495   0.512   0.492   0.483   0.496   0.441   0.488   0.474   0.478   0.480   0.463   0.479   0.455   0.451   0.486   0.464   0.473   0.463   0.494   0.486   0.491   0.458   0.482   0.493   0.493   0.448   0.462   0.483   0.483   0.471   0.460   0.480   0.455   0.475   0.479   0.508   0.486   0.492   0.445   0.505   0.511   0.456   0.497   0.499   0.462   0.476   0.482   0.480   0.498   0.465   0.455   0.470   0.488   0.464   0.484   0.462   0.467   0.511   0.461   0.463   0.473   0.448   0.482   0.478   0.497   0.516   0.529   0.462   0.466   0.479   0.514   0.475   0.518   0.513   0.497   0.510   0.436   0.488   0.490   0.501   0.484   0.476   0.473   0.473   0.519   0.460   0.474   0.457   0.507   0.465   0.465   0.473   0.467   0.483   0.484   0.472   0.477   0.487   0.451   0.487   0.502   0.445   0.453   0.487   0.516   0.487   0.459   0.475   0.460   0.507   0.478   0.482   0.490   0.454   0.508   0.516   0.490   0.455   0.496   0.499   0.490   0.516   0.445   0.479   0.452   0.467   0.507   0.440   0.488   0.474   0.464   0.482   0.470   0.504   0.458   0.512   0.511   0.518   0.523   0.476   0.480   0.463   0.462   0.489   0.458   0.474   0.473   0.481   0.438   0.485   0.455   0.474   0.456   0.471   0.465   0.493   0.508   0.501   0.514   0.525   0.436   0.483   0.485   0.478   0.485   0.513   0.504   0.459   0.473   0.503   0.444   0.475   0.502   0.495   0.492   0.459   0.480   0.497
    26.00    0.479   0.483   0.473   0.475   0.509   0.453   0.472   0.484   0.457   0.509   0.455   0.481   0.479   0.487   0.491   0.493   0.453   0.484   0.466   0.504   0.468   0.478   0.497   0.475   0.472   0.448   0.477   0.478   0.503   0.456   0.477   0.501   0.478   0.480   0.467   0.472   0.489   0.451   0.504   0.475   0.520   0.495   0.476   0.478   0.501   0.502   0.509   0.472   0.475   0.473   0.468   0.517   0.500   0.520   0.463   0.458   0.469   0.469   0.442   0.499   0.506   0.439   0.498   0.458   0.482   0.488   0.479   0.507   0.475   0.477   0.484   0.520   0.446   0.479   0.491   0.468   0.469   0.466   0.484   0.449   0.509   0.519   0.435   0.474   0.466   0.464   0.480   0.465   0.451   0.472   0.504   0.522   0.451   0.494   0.511   0.469   0.474   0.504   0.480   0.495   0.471   0.486   0.456   0.508   0.506   0.441   0.491   0.449   0.483   0.469   0.491   0.482   0.464   0.473   0.515   0.450   0.506   0.493   0.470   0.511   0.452   0.480   0.508   0.466   0.475   0.481   0.461   0.498   0.492   0.483   0.498   0.484   0.457   0.474   0.523   0.487   0.484   0.504   0.492   0.473   0.447   0.485   0.508   0.486   0.483   0.483   0.507   0.495   0.456   0.484   0.463   0.506   0.498   0.482   0.486   0.467   0.486   0.514   0.482   0.513   0.446   0.485   0.485   0.496   0.497   0.510   0.446   0.502   0.442   0.494   0.438   0.486   0.475   0.464   0.507   0.495   0.483   0.484   0.468   0.463   0.470   0.488   0.517   0.519   0.502   0.481   0.514   0.473   0.519   0.478   0.467   0.498   0.507   0.463   0.488   0.473   0.483   0.470   0.482   0.465   0.480   0.461   0.477   0.495   0.488   0.494   0.510   0.505   0.463   0.515   0.519   0.487   0.461   0.493   0.471   0.454   0.494   0.444   0.472   0.475   0.505   0.514   0.503   0.475   0.488   0.482   0.483   0.505   0.473   0.456   0.501   0.503   0.488   0.465   0.512   0.498   0.502   0.520   0.443
     1.00    0.482   0.472   0.498   0.481   0.462   0.471   0.497   0.484   0.480   0.479   0.482   0.470   0.466   0.490   0.490   0.471   0.490   0.494   0.476   0.495   0.497   0.494   0.462   0.472   0.475   0.462   0.492   0.495   0.493   0.474   0.473   0.470   0.471   0.491   0.470   0.499   0.463   0.498   0.477   0.490   0.488   0.501   0.462   0.464   0.485   0.464   0.491   0.499   0.465   0.474   0.500   0.468   0.490   0.498   0.472   0.488   0.462   0.486   0.491   0.499   0.477   0.498   0.476   0.479   0.468   0.467   0.499   0.465   0.464   0.464   0.484   0.490   0.485   0.488   0.474   0.499   0.478   0.500   0.468   0.499   0.471   0.493   0.490   0.501   0.502   0.463   0.485   0.463   0.463   0.499   0.496   0.499   0.496   0.477   0.470   0.492   0.480   0.493   0.495   0.500   0.472   0.463   0.464   0.464   0.496   0.494   0.500   0.494   0.474   0.488   0.490   0.498   0.500   0.462   0.488   0.500   0.464   0.468   0.463   0.497   0.482   0.476   0.466   0.499   0.474   0.468   0.482   0.467   0.492   0.488   0.484   0.480   0.463   0.469   0.484   0.498   0.470   0.466   0.464   0.484   0.475   0.485   0.478   0.498   0.498   0.470   0.466   0.468   0.468   0.474   0.478   0.499   0.475   0.467   0.498   0.471   0.479   0.492   0.486   0.462   0.495   0.464   0.470   0.468   0.463   0.499   0.488   0.468   0.499   0.498   0.500   0.496   0.461   0.478   0.483   0.490   0.462   0.498   0.502   0.474   0.463   0.485   0.501   0.481   0.496   0.481   0.495   0.462   0.483   0.500   0.464   0.468   0.490   0.477   0.488   0.471   0.492   0.466   0.482   0.463   0.493   0.501   0.491   0.492   0.501   0.465   0.472   0.467   0.479   0.475   0.486   0.467   0.494   0.483   0.499   0.498   0.500   0.494   0.496   0.476   0.482   0.498   0.470   0.490   0.482   0.500   0.473   0.497   0.462   0.464   0.470   0.498   0.461   0.470   0.483   0.496   0.490   0.479   0.493

   Height   Standard deviation at grid points for the v component:
   351.00    0.510   0.553   0.557   0.555   0.556   0.536   0.481   0.528   0.517   0.530   0.522   0.499   0.503   0.531   0.515   0.513   0.553   0.549   0.510   0.515   0.489   0.508   0.529   0.535   0.513   0.516   0.545   0.518   0.553   0.540   0.512   0.510   0.526   0.539   0.507   0.532   0.520   0.530   0.513   0.511   0.543   0.533   0.515   0.555   0.540   0.501   0.533   0.495   0.504   0.521   0.524   0.519   0.527   0.523   0.525   0.499   0.514   0.554   0.493   0.511   0.529   0.565   0.493   0.545   0.530   0.554   0.535   0.508   0.515   0.524   0.519   0.540   0.564   0.479   0.512   0.531   0.516   0.513   0.507   0.523   0.506   0.527   0.522   0.514   0.504   0.517   0.514   0.508   0.534   0.517   0.524   0.533   0.514   0.546   0.535   0.521   0.491   0.535   0.564   0.489   0.549   0.486   0.542   0.487   0.517   0.541   0.507   0.540   0.554   0.532   0.535   0.565   0.562   0.494   0.512   0.535   0.506   0.513   0.517   0.504   0.530   0.507   0.511   0.533   0.522   0.544   0.513   0.561   0.516   0.559   0.535   0.528   0.525   0.505   0.549   0.553   0.519   0.496   0.530   0.544   0.504   0.536   0.505   0.527   0.511   0.519   0.519   0.492   0.521   0.493   0.547   0.511   0.501   0.514   0.521   0.520   0.532   0.529   0.487   0.531   0.535   0.520   0.555   0.502   0.494   0.545   0.518   0.530   0.533   0.552   0.540   0.542   0.498   0.513   0.491   0.519   0.547   0.520   0.521   0.523   0.550   0.554   0.492   0.511   0.531   0.492   0.502   0.510   0.499   0.509   0.528   0.557   0.509   0.549   0.490   0.526   0.508   0.491   0.527   0.552   0.571   0.566   0.552   0.509   0.536   0.502   0.509   0.498   0.536   0.551   0.547   0.542   0.562   0.548   0.505   0.499   0.524   0.534   0.501   0.534   0.543   0.517   0.559   0.523   0.491   0.516   0.530   0.495   0.525   0.513   0.494   0.516   0.530   0.558   0.556   0.512   0.488   0.528   0.526
   326.00    0.513   0.519   0.552   0.497   0.512   0.546   0.530   0.518   0.522   0.500   0.513   0.528   0.530   0.536   0.497   0.562   0.567   0.509   0.535   0.551   0.525   0.505   0.521   0.521   0.518   0.537   0.517   0.493   0.519   0.500   0.523   0.517   0.498   0.527   0.529   0.540   0.554   0.516   0.534   0.494   0.504   0.520   0.492   0.532   0.551   0.511   0.489   0.514   0.523   0.501   0.534   0.521   0.545   0.523   0.554   0.506   0.526   0.498   0.512   0.531   0.511   0.547   0.511   0.530   0.513   0.509   0.518   0.530   0.562   0.520   0.527   0.525   0.549   0.554   0.563   0.542   0.492   0.547   0.532   0.551   0.558   0.533   0.492   0.515   0.501   0.530   0.543   0.487   0.524   0.489   0.522   0.513   0.534   0.547   0.530   0.528   0.530   0.533   0.516   0.507   0.531   0.532   0.524   0.532   0.536   0.552   0.544   0.520   0.524   0.522   0.537   0.543   0.558   0.538   0.496   0.521   0.507   0.525   0.543   0.549   0.557   0.505   0.529   0.553   0.542   0.523   0.529   0.532   0.512   0.537   0.561   0.517   0.516   0.507   0.498   0.554   0.546   0.503   0.503   0.512   0.520   0.533   0.516   0.518   0.528   0.504   0.502   0.516   0.529   0.542   0.518   0.490   0.522   0.533   0.501   0.504   0.507   0.507   0.550   0.546   0.495   0.539   0.497   0.517   0.525   0.512   0.531   0.520   0.488   0.522   0.507   0.525   0.502   0.524   0.499   0.545   0.493   0.529   0.543   0.524   0.530   0.529   0.522   0.519   0.544   0.549   0.508   0.548   0.500   0.511   0.513   0.532   0.485   0.523   0.526   0.519   0.494   0.525   0.530   0.488   0.523   0.527   0.510   0.532   0.480   0.512   0.530   0.518   0.525   0.519   0.554   0.496   0.517   0.553   0.567   0.495   0.530   0.504   0.507   0.558   0.488   0.508   0.530   0.528   0.546   0.526   0.527   0.508   0.563   0.526   0.556   0.554   0.522   0.511   0.556   0.489   0.532   0.522   0.511
   301.00    0.509   0.501   0.529   0.541   0.524   0.512   0.526   0.565   0.555   0.517   0.521   0.495   0.506   0.532   0.497   0.537   0.559   0.521   0.512   0.521   0.518   0.507   0.521   0.506   0.502   0.519   0.531   0.486   0.529   0.489   0.514   0.492   0.531   0.520   0.529   0.506   0.513   0.511   0.541   0.552   0.533   0.530   0.525   0.500   0.542   0.508   0.564   0.516   0.528   0.492   0.509   0.522   0.531   0.544   0.537   0.558   0.506   0.522   0.559   0.535   0.524   0.488   0.532   0.494   0.500   0.511   0.533   0.525   0.560   0.534   0.489   0.540   0.530   0.559   0.531   0.509   0.514   0.513   0.509   0.494   0.522   0.507   0.529   0.537   0.557   0.557   0.542   0.551   0.545   0.506   0.534   0.523   0.523   0.537   0.506   0.507   0.517   0.542   0.511   0.555   0.520   0.513   0.486   0.534   0.567   0.507   0.503   0.503   0.509   0.502   0.520   0.548   0.525   0.536   0.549   0.517   0.519   0.529   0.493   0.545   0.508   0.527   0.554   0.515   0.518   0.550   0.503   0.520   0.528   0.563   0.535   0.517   0.532   0.516   0.557   0.506   0.538   0.495   0.501   0.512   0.493   0.518   0.541   0.560   0.503   0.518   0.539   0.513   0.540   0.521   0.483   0.512   0.517   0.502   0.545   0.539   0.484   0.535   0.540   0.538   0.529   0.514   0.516   0.533   0.515   0.534   0.515   0.551   0.517   0.517   0.516   0.504   0.516   0.517   0.537   0.491   0.518   0.532   0.530   0.523   0.516   0.526   0.523   0.489   0.503   0.522   0.555   0.556   0.524   0.550   0.505   0.528   0.537   0.564   0.500   0.508   0.495   0.547   0.520   0.555   0.537   0.536   0.529   0.549   0.559   0.539   0.558   0.489   0.507   0.501   0.544   0.508   0.538   0.500   0.518   0.511   0.530   0.497   0.557   0.548   0.521   0.530   0.545   0.517   0.513   0.510   0.518   0.519   0.562   0.554   0.504   0.523   0.499   0.529   0.492   0.540   0.511   0.511   0.558
   276.00    0.539   0.490   0.525   0.521   0.508   0.547   0.520   0.533   0.506   0.533   0.523   0.522   0.498   0.506   0.516   0.555   0.534   0.519   0.511   0.555   0.500   0.559   0.568   0.515   0.509   0.516   0.528   0.539   0.510   0.534   0.535   0.521   0.557   0.549   0.550   0.497   0.526   0.547   0.485   0.522   0.516   0.490   0.519   0.521   0.562   0.489   0.519   0.524   0.493   0.522   0.516   0.529   0.522   0.499   0.508   0.521   0.504   0.493   0.518   0.522   0.515   0.520   0.538   0.522   0.505   0.538   0.512   0.524   0.542   0.552   0.535   0.533   0.484   0.525   0.557   0.506   0.500   0.534   0.552   0.531   0.493   0.522   0.501   0.527   0.551   0.521   0.526   0.502   0.500   0.510   0.506   0.492   0.544   0.552   0.488   0.536   0.538   0.548   0.484   0.525   0.533   0.548   0.542   0.519   0.544   0.506   0.528   0.530   0.550   0.501   0.532   0.490   0.522   0.503   0.507   0.504   0.503   0.533   0.504   0.544   0.510   0.564   0.547   0.525   0.544   0.532   0.543   0.532   0.518   0.542   0.552   0.536   0.498   0.500   0.530   0.500   0.533   0.518   0.500   0.519   0.507   0.542   0.527   0.541   0.543   0.537   0.525   0.511   0.501   0.534   0.549   0.528   0.517   0.530   0.540   0.505   0.529   0.552   0.536   0.518   0.513   0.486   0.528   0.510   0.518   0.500   0.545   0.494   0.521   0.516   0.556   0.494   0.493   0.532   0.562   0.523   0.549   0.537   0.528   0.502   0.491   0.523   0.529   0.515   0.541   0.526   0.498   0.512   0.506   0.493   0.521   0.502   0.528   0.523   0.528   0.529   0.533   0.503   0.519   0.503   0.512   0.528   0.521   0.544   0.539   0.494   0.534   0.552   0.514   0.515   0.521   0.530   0.519   0.525   0.543   0.556   0.536   0.551   0.519   0.528   0.536   0.531   0.543   0.521   0.499   0.497   0.513   0.503   0.529   0.532   0.516   0.548   0.505   0.518   0.531   0.508   0.521   0.519   0.527
   251.00    0.515   0.510   0.525   0.526   0.541   0.538   0.498   0.545   0.513   0.526   0.492   0.526   0.561   0.490   0.546   0.554   0.521   0.514   0.513   0.529   0.559   0.509   0.540   0.547   0.525   0.513   0.513   0.527   0.525   0.520   0.511   0.506   0.506   0.526   0.521   0.547   0.524   0.511   0.566   0.551   0.508   0.526   0.541   0.511   0.507   0.513   0.519   0.521   0.545   0.552   0.544   0.480   0.520   0.546   0.538   0.523   0.495   0.502   0.540   0.518   0.513   0.509   0.516   0.511   0.518   0.505   0.529   0.497   0.529   0.552   0.535   0.483   0.533   0.553   0.492   0.539   0.519   0.517   0.539   0.492   0.503   0.521   0.507   0.515   0.539   0.500   0.522   0.525   0.505   0.505   0.527   0.515   0.506   0.556   0.555   0.516   0.531   0.482   0.512   0.558   0.489   0.493   0.522   0.527   0.534   0.518   0.528   0.509   0.533   0.484   0.515   0.541   0.548   0.491   0.494   0.522   0.495   0.539   0.572   0.480   0.539   0.523   0.527   0.526   0.511   0.510   0.500   0.529   0.536   0.502   0.544   0.521   0.508   0.513   0.522   0.494   0.504   0.522   0.494   0.509   0.510   0.536   0.540   0.492   0.501   0.501   0.530   0.516   0.547   0.549   0.545   0.518   0.545   0.503   0.510   0.506   0.501   0.532   0.552   0.492   0.548   0.502   0.556   0.492   0.514   0.535   0.507   0.524   0.525   0.512   0.531   0.555   0.501   0.527   0.558   0.482   0.504   0.528   0.497   0.528   0.519   0.550   0.547   0.558   0.511   0.497   0.505   0.539   0.487   0.527   0.544   0.493   0.549   0.495   0.521   0.501   0.548   0.534   0.547   0.566   0.552   0.491   0.522   0.526   0.526   0.523   0.565   0.522   0.503   0.519   0.549   0.546   0.495   0.532   0.557   0.548   0.516   0.511   0.496   0.531   0.535   0.555   0.482   0.536   0.529   0.492   0.499   0.526   0.521   0.496   0.492   0.523   0.500   0.502   0.503   0.516   0.531   0.488   0.512
   226.00    0.544   0.530   0.550   0.569   0.501   0.526   0.537   0.487   0.517   0.520   0.503   0.533   0.522   0.543   0.510   0.524   0.536   0.533   0.527   0.509   0.531   0.549   0.510   0.499   0.523   0.555   0.542   0.525   0.521   0.553   0.538   0.556   0.491   0.514   0.521   0.545   0.501   0.498   0.527   0.544   0.535   0.492   0.527   0.534   0.537   0.524   0.509   0.515   0.525   0.518   0.531   0.546   0.552   0.519   0.491   0.531   0.538   0.517   0.500   0.538   0.505   0.546   0.564   0.538   0.560   0.529   0.498   0.553   0.501   0.488   0.522   0.520   0.531   0.528   0.509   0.534   0.501   0.515   0.515   0.531   0.531   0.527   0.532   0.491   0.530   0.505   0.550   0.554   0.501   0.525   0.528   0.502   0.533   0.502   0.519   0.521   0.519   0.556   0.545   0.524   0.524   0.521   0.513   0.539   0.507   0.550   0.503   0.554   0.548   0.538   0.539   0.491   0.552   0.559   0.495   0.525   0.515   0.550   0.541   0.535   0.555   0.514   0.511   0.517   0.508   0.518   0.523   0.507   0.539   0.498   0.548   0.522   0.553   0.496   0.529   0.537   0.523   0.531   0.539   0.496   0.508   0.509   0.529   0.545   0.503   0.517   0.528   0.511   0.537   0.528   0.540   0.505   0.556   0.517   0.536   0.521   0.511   0.527   0.523   0.546   0.493   0.540   0.516   0.523   0.505   0.521   0.514   0.518   0.498   0.545   0.537   0.559   0.522   0.531   0.522   0.537   0.556   0.529   0.552   0.573   0.542   0.490   0.519   0.531   0.494   0.544   0.532   0.511   0.538   0.522   0.534   0.532   0.496   0.523   0.548   0.502   0.543   0.489   0.508   0.529   0.547   0.527   0.543   0.551   0.486   0.531   0.528   0.544   0.501   0.541   0.495   0.503   0.518   0.524   0.535   0.492   0.522   0.498   0.522   0.546   0.502   0.526   0.559   0.498   0.537   0.571   0.561   0.523   0.505   0.509   0.523   0.556   0.501   0.500   0.537   0.521   0.496   0.502   0.556
   201.00    0.542   0.540   0.512   0.537   0.512   0.517   0.521   0.517   0.519   0.525   0.497   0.517   0.518   0.514   0.493   0.521   0.535   0.548   0.563   0.553   0.554   0.563   0.557   0.509   0.535   0.553   0.516   0.507   0.536   0.512   0.511   0.506   0.529   0.502   0.523   0.526   0.551   0.517   0.548   0.566   0.558   0.538   0.542   0.486   0.541   0.492   0.503   0.528   0.505   0.515   0.552   0.518   0.529   0.526   0.562   0.516   0.517   0.548   0.524   0.549   0.526   0.509   0.522   0.537   0.560   0.495   0.542   0.536   0.506   0.526   0.532   0.487   0.512   0.523   0.521   0.525   0.523   0.549   0.531   0.544   0.549   0.509   0.502   0.539   0.554   0.522   0.553   0.541   0.551   0.487   0.520   0.534   0.528   0.519   0.524   0.510   0.542   0.517   0.523   0.557   0.546   0.550   0.524   0.556   0.523   0.489   0.520   0.506   0.547   0.518   0.529   0.494   0.515   0.507   0.508   0.530   0.521   0.513   0.523   0.512   0.515   0.516   0.532   0.552   0.534   0.550   0.509   0.561   0.502   0.533   0.501   0.512   0.506   0.530   0.538   0.528   0.514   0.524   0.556   0.498   0.539   0.489   0.514   0.534   0.543   0.554   0.486   0.516   0.511   0.523   0.500   0.533   0.507   0.520   0.523   0.528   0.508   0.512   0.541   0.550   0.530   0.512   0.514   0.549   0.532   0.518   0.525   0.499   0.509   0.504   0.529   0.503   0.510   0.508   0.488   0.535   0.514   0.559   0.488   0.530   0.561   0.574   0.483   0.506   0.503   0.531   0.530   0.504   0.509   0.515   0.562   0.481   0.513   0.532   0.547   0.495   0.531   0.539   0.521   0.548   0.526   0.542   0.527   0.549   0.565   0.485   0.534   0.496   0.544   0.523   0.532   0.487   0.514   0.521   0.537   0.543   0.518   0.519   0.509   0.509   0.513   0.518   0.526   0.519   0.513   0.541   0.514   0.525   0.545   0.491   0.518   0.553   0.505   0.549   0.532   0.547   0.562   0.499   0.519
   176.00    0.509   0.507   0.499   0.559   0.488   0.512   0.509   0.492   0.501   0.541   0.547   0.530   0.503   0.523   0.519   0.552   0.489   0.524   0.553   0.532   0.548   0.517   0.518   0.527   0.500   0.549   0.531   0.539   0.516   0.506   0.506   0.518   0.545   0.577   0.574   0.517   0.515   0.514   0.523   0.505   0.512   0.520   0.509   0.552   0.545   0.525   0.554   0.554   0.518   0.516   0.515   0.509   0.519   0.527   0.546   0.487   0.536   0.552   0.515   0.516   0.515   0.489   0.506   0.528   0.533   0.553   0.548   0.487   0.509   0.506   0.493   0.503   0.517   0.520   0.542   0.492   0.553   0.546   0.495   0.497   0.527   0.524   0.526   0.530   0.525   0.526   0.528   0.545   0.529   0.545   0.498   0.535   0.491   0.527   0.511   0.511   0.503   0.517   0.511   0.510   0.495   0.534   0.494   0.500   0.533   0.535   0.521   0.525   0.518   0.554   0.482   0.539   0.534   0.523   0.520   0.538   0.511   0.487   0.519   0.544   0.547   0.514   0.534   0.516   0.519   0.495   0.534   0.513   0.533   0.523   0.542   0.500   0.516   0.531   0.549   0.492   0.536   0.536   0.534   0.537   0.485   0.505   0.555   0.553   0.497   0.534   0.514   0.524   0.503   0.501   0.504   0.542   0.504   0.506   0.526   0.489   0.522   0.540   0.495   0.546   0.522   0.491   0.543   0.568   0.568   0.557   0.492   0.514   0.493   0.536   0.517   0.516   0.547   0.536   0.540   0.517   0.537   0.513   0.547   0.506   0.535   0.531   0.542   0.520   0.554   0.572   0.538   0.512   0.525   0.529   0.501   0.552   0.520   0.538   0.505   0.525   0.511   0.520   0.498   0.516   0.497   0.509   0.533   0.512   0.506   0.526   0.535   0.512   0.531   0.483   0.527   0.518   0.523   0.549   0.501   0.509   0.540   0.552   0.496   0.512   0.535   0.552   0.498   0.531   0.563   0.497   0.530   0.519   0.529   0.561   0.530   0.483   0.507   0.522   0.551   0.540   0.534   0.500   0.519
   151.00    0.509   0.539   0.503   0.499   0.551   0.540   0.496   0.558   0.538   0.519   0.513   0.522   0.501   0.513   0.500   0.493   0.534   0.509   0.517   0.528   0.498   0.493   0.510   0.510   0.527   0.490   0.491   0.512   0.523   0.535   0.522   0.547   0.546   0.565   0.565   0.534   0.516   0.523   0.520   0.551   0.560   0.573   0.573   0.501   0.517   0.542   0.550   0.535   0.550   0.551   0.563   0.481   0.516   0.507   0.490   0.510   0.550   0.524   0.506   0.516   0.504   0.542   0.514   0.499   0.507   0.505   0.547   0.541   0.562   0.497   0.528   0.503   0.525   0.556   0.488   0.513   0.501   0.516   0.536   0.493   0.515   0.506   0.521   0.525   0.552   0.530   0.527   0.565   0.503   0.542   0.541   0.567   0.523   0.532   0.507   0.554   0.527   0.532   0.539   0.515   0.532   0.552   0.550   0.542   0.556   0.505   0.552   0.523   0.518   0.501   0.543   0.524   0.517   0.498   0.523   0.548   0.539   0.561   0.565   0.536   0.533   0.523   0.509   0.529   0.543   0.512   0.497   0.510   0.512   0.520   0.487   0.538   0.519   0.486   0.519   0.517   0.554   0.537   0.523   0.530   0.554   0.566   0.489   0.530   0.540   0.534   0.544   0.502   0.523   0.497   0.529   0.543   0.529   0.544   0.550   0.502   0.535   0.509   0.528   0.535   0.513   0.518   0.542   0.549   0.531   0.523   0.518   0.505   0.535   0.535   0.535   0.497   0.539   0.505   0.512   0.513   0.506   0.554   0.543   0.494   0.531   0.479   0.531   0.547   0.543   0.535   0.551   0.515   0.511   0.530   0.523   0.517   0.512   0.484   0.534   0.510   0.529   0.557   0.490   0.499   0.521   0.535   0.534   0.545   0.541   0.525   0.526   0.517   0.527   0.546   0.557   0.509   0.526   0.514   0.520   0.486   0.520   0.548   0.530   0.548   0.492   0.538   0.561   0.519   0.499   0.540   0.512   0.527   0.550   0.560   0.496   0.516   0.527   0.511   0.528   0.499   0.495   0.502   0.524
   126.00    0.538   0.518   0.561   0.555   0.554   0.510   0.511   0.514   0.522   0.548   0.542   0.527   0.542   0.509   0.523   0.491   0.535   0.520   0.562   0.530   0.514   0.503   0.553   0.552   0.543   0.562   0.505   0.547   0.549   0.483   0.542   0.573   0.567   0.519   0.520   0.547   0.502   0.558   0.494   0.541   0.518   0.554   0.530   0.549   0.539   0.506   0.511   0.518   0.503   0.544   0.505   0.555   0.560   0.558   0.511   0.518   0.518   0.499   0.507   0.543   0.499   0.543   0.527   0.526   0.514   0.538   0.532   0.538   0.522   0.505   0.524   0.501   0.520   0.561   0.570   0.551   0.499   0.548   0.492   0.495   0.525   0.529   0.526   0.546   0.543   0.512   0.530   0.544   0.557   0.492   0.521   0.523   0.549   0.488   0.542   0.519   0.497   0.488   0.540   0.559   0.552   0.548   0.524   0.530   0.528   0.536   0.536   0.540   0.544   0.522   0.549   0.511   0.503   0.521   0.529   0.499   0.528   0.541   0.560   0.535   0.535   0.500   0.514   0.514   0.537   0.502   0.532   0.513   0.527   0.535   0.525   0.522   0.525   0.518   0.539   0.522   0.516   0.544   0.513   0.519   0.537   0.542   0.526   0.503   0.518   0.519   0.505   0.535   0.519   0.503   0.549   0.558   0.526   0.560   0.544   0.534   0.535   0.517   0.501   0.516   0.547   0.521   0.518   0.545   0.568   0.518   0.508   0.517   0.522   0.537   0.558   0.563   0.516   0.557   0.497   0.528   0.504   0.507   0.534   0.535   0.537   0.542   0.523   0.502   0.526   0.514   0.532   0.549   0.503   0.502   0.517   0.544   0.526   0.546   0.538   0.527   0.542   0.528   0.524   0.521   0.528   0.529   0.557   0.504   0.495   0.495   0.516   0.552   0.484   0.528   0.527   0.541   0.556   0.500   0.524   0.564   0.523   0.495   0.516   0.536   0.504   0.544   0.526   0.518   0.553   0.570   0.551   0.498   0.530   0.544   0.531   0.550   0.522   0.492   0.521   0.520   0.504   0.537   0.560
   101.00    0.508   0.532   0.541   0.557   0.553   0.488   0.497   0.518   0.545   0.496   0.554   0.520   0.526   0.500   0.521   0.516   0.515   0.517   0.534   0.562   0.529   0.500   0.495   0.547   0.557   0.502   0.547   0.531   0.513   0.539   0.554   0.569   0.559   0.515   0.507   0.526   0.535   0.498   0.520   0.556   0.564   0.530   0.528   0.497   0.519   0.488   0.518   0.487   0.519   0.522   0.566   0.566   0.562   0.573   0.517   0.531   0.499   0.510   0.504   0.490   0.544   0.486   0.495   0.544   0.497   0.493   0.504   0.504   0.556   0.483   0.517   0.517   0.496   0.536   0.558   0.558   0.511   0.512   0.528   0.502   0.505   0.533   0.563   0.512   0.545   0.489   0.514   0.527   0.533   0.512   0.505   0.560   0.487   0.533   0.556   0.569   0.526   0.528   0.559   0.538   0.529   0.492   0.521   0.513   0.529   0.478   0.519   0.504   0.501   0.540   0.488   0.528   0.493   0.556   0.483   0.529   0.487   0.523   0.553   0.494   0.489   0.516   0.515   0.516   0.534   0.529   0.513   0.496   0.512   0.521   0.495   0.541   0.521   0.491   0.528   0.492   0.520   0.538   0.529   0.515   0.518   0.541   0.568   0.539   0.508   0.529   0.555   0.542   0.487   0.535   0.490   0.545   0.516   0.508   0.527   0.498   0.539   0.490   0.538   0.494   0.527   0.544   0.523   0.557   0.550   0.525   0.512   0.524   0.517   0.526   0.553   0.537   0.518   0.548   0.567   0.504   0.524   0.518   0.523   0.520   0.565   0.568   0.549   0.486   0.519   0.524   0.557   0.527   0.507   0.520   0.526   0.532   0.526   0.532   0.506   0.523   0.503   0.529   0.494   0.513   0.514   0.530   0.538   0.496   0.535   0.508   0.515   0.504   0.540   0.534   0.525   0.507   0.521   0.514   0.526   0.532   0.525   0.524   0.564   0.546   0.489   0.507   0.501   0.524   0.524   0.556   0.549   0.537   0.523   0.517   0.545   0.530   0.499   0.544   0.561   0.526   0.501   0.529   0.550
    76.00    0.539   0.527   0.541   0.510   0.538   0.542   0.507   0.521   0.519   0.531   0.551   0.537   0.504   0.551   0.527   0.513   0.495   0.524   0.535   0.529   0.516   0.500   0.522   0.512   0.554   0.529   0.519   0.488   0.515   0.530   0.550   0.524   0.518   0.511   0.512   0.497   0.518   0.520   0.536   0.508   0.514   0.519   0.526   0.531   0.504   0.535   0.543   0.509   0.523   0.499   0.544   0.532   0.529   0.523   0.551   0.552   0.506   0.507   0.523   0.544   0.562   0.557   0.516   0.528   0.507   0.558   0.521   0.511   0.516   0.540   0.549   0.568   0.492   0.524   0.556   0.566   0.508   0.505   0.529   0.496   0.521   0.523   0.523   0.549   0.538   0.508   0.547   0.564   0.520   0.519   0.555   0.552   0.555   0.537   0.512   0.530   0.522   0.538   0.533   0.538   0.493   0.517   0.522   0.523   0.532   0.560   0.532   0.503   0.496   0.540   0.548   0.480   0.534   0.508   0.524   0.559   0.556   0.512   0.512   0.510   0.509   0.539   0.514   0.527   0.532   0.550   0.524   0.517   0.532   0.515   0.495   0.507   0.524   0.529   0.523   0.542   0.540   0.492   0.530   0.547   0.499   0.529   0.553   0.520   0.498   0.536   0.561   0.504   0.549   0.530   0.547   0.524   0.498   0.529   0.541   0.555   0.523   0.541   0.513   0.485   0.531   0.538   0.517   0.519   0.531   0.518   0.490   0.521   0.517   0.526   0.501   0.501   0.506   0.510   0.534   0.530   0.526   0.509   0.493   0.538   0.519   0.553   0.502   0.536   0.513   0.527   0.550   0.524   0.557   0.536   0.514   0.555   0.514   0.541   0.502   0.542   0.525   0.527   0.521   0.525   0.519   0.530   0.498   0.518   0.499   0.507   0.521   0.517   0.531   0.512   0.499   0.557   0.492   0.524   0.551   0.534   0.494   0.533   0.550   0.550   0.560   0.493   0.498   0.534   0.530   0.513   0.523   0.512   0.516   0.518   0.561   0.508   0.527   0.562   0.498   0.525   0.506   0.526   0.511
    51.00    0.530   0.498   0.552   0.547   0.517   0.522   0.494   0.531   0.550   0.499   0.513   0.510   0.533   0.534   0.519   0.526   0.515   0.509   0.532   0.531   0.558   0.511   0.510   0.500   0.511   0.511   0.517   0.523   0.526   0.506   0.545   0.504   0.555   0.523   0.530   0.549   0.545   0.509   0.521   0.492   0.525   0.561   0.563   0.501   0.553   0.565   0.536   0.499   0.521   0.548   0.486   0.533   0.481   0.528   0.530   0.520   0.507   0.540   0.525   0.497   0.515   0.504   0.537   0.490   0.529   0.518   0.528   0.555   0.491   0.537   0.493   0.541   0.545   0.534   0.507   0.525   0.545   0.547   0.526   0.538   0.506   0.526   0.531   0.557   0.558   0.525   0.510   0.517   0.508   0.533   0.489   0.535   0.533   0.521   0.511   0.493   0.536   0.527   0.559   0.537   0.559   0.498   0.557   0.484   0.509   0.548   0.499   0.511   0.512   0.519   0.530   0.526   0.551   0.555   0.565   0.509   0.551   0.564   0.488   0.546   0.514   0.559   0.489   0.551   0.489   0.514   0.500   0.533   0.490   0.519   0.496   0.521   0.528   0.498   0.532   0.499   0.510   0.522   0.540   0.562   0.542   0.551   0.499   0.517   0.493   0.542   0.531   0.509   0.528   0.538   0.537   0.508   0.566   0.519   0.508   0.522   0.549   0.513   0.553   0.566   0.515   0.540   0.516   0.507   0.536   0.513   0.511   0.544   0.517   0.501   0.524   0.531   0.514   0.531   0.570   0.554   0.510   0.523   0.494   0.543   0.539   0.499   0.511   0.537   0.513   0.519   0.515   0.543   0.541   0.498   0.533   0.503   0.512   0.529   0.529   0.542   0.548   0.535   0.532   0.523   0.515   0.497   0.515   0.518   0.542   0.493   0.525   0.498   0.511   0.529   0.555   0.508   0.536   0.511   0.516   0.504   0.550   0.548   0.490   0.536   0.566   0.559   0.544   0.530   0.507   0.519   0.512   0.526   0.523   0.514   0.542   0.492   0.521   0.560   0.574   0.534   0.528   0.545   0.531
    26.00    0.536   0.521   0.527   0.530   0.528   0.562   0.517   0.512   0.524   0.499   0.508   0.540   0.491   0.517   0.531   0.533   0.498   0.530   0.529   0.553   0.562   0.484   0.529   0.521   0.543   0.527   0.518   0.506   0.530   0.521   0.527   0.556   0.519   0.507   0.529   0.551   0.510   0.513   0.524   0.534   0.544   0.522   0.549   0.499   0.528   0.519   0.540   0.499   0.548   0.491   0.529   0.518   0.530   0.544   0.509   0.534   0.515   0.520   0.499   0.500   0.515   0.521   0.539   0.544   0.529   0.527   0.527   0.521   0.540   0.517   0.499   0.527   0.503   0.526   0.548   0.506   0.524   0.509   0.526   0.487   0.511   0.494   0.521   0.542   0.519   0.514   0.531   0.497   0.525   0.515   0.538   0.524   0.524   0.505   0.511   0.526   0.514   0.516   0.496   0.543   0.526   0.554   0.485   0.531   0.511   0.490   0.522   0.518   0.538   0.523   0.533   0.512   0.550   0.515   0.559   0.540   0.498   0.494   0.513   0.533   0.511   0.517   0.536   0.507   0.516   0.532   0.506   0.526   0.529   0.502   0.533   0.531   0.546   0.506   0.521   0.508   0.517   0.496   0.517   0.537   0.532   0.525   0.494   0.512   0.522   0.504   0.527   0.507   0.512   0.529   0.502   0.494   0.541   0.535   0.520   0.495   0.535   0.486   0.528   0.560   0.548   0.496   0.539   0.503   0.541   0.505   0.512   0.517   0.520   0.557   0.498   0.554   0.487   0.496   0.528   0.552   0.499   0.515   0.521   0.513   0.541   0.524   0.527   0.544   0.562   0.514   0.503   0.548   0.491   0.515   0.525   0.516   0.506   0.518   0.518   0.512   0.539   0.532   0.523   0.533   0.506   0.500   0.514   0.532   0.510   0.521   0.530   0.513   0.515   0.530   0.509   0.518   0.527   0.531   0.512   0.486   0.529   0.533   0.530   0.544   0.526   0.547   0.517   0.491   0.538   0.519   0.500   0.544   0.520   0.554   0.511   0.542   0.510   0.526   0.563   0.564   0.559   0.563   0.544
     1.00    0.525   0.508   0.531   0.516   0.542   0.541   0.507   0.509   0.524   0.505   0.526   0.532   0.514   0.527   0.539   0.545   0.545   0.539   0.520   0.507   0.535   0.543   0.516   0.525   0.532   0.507   0.529   0.535   0.543   0.504   0.539   0.505   0.536   0.544   0.513   0.544   0.521   0.527   0.532   0.543   0.506   0.542   0.504   0.510   0.543   0.506   0.530   0.527   0.528   0.539   0.543   0.509   0.529   0.505   0.531   0.505   0.543   0.536   0.531   0.541   0.532   0.538   0.515   0.528   0.523   0.506   0.542   0.511   0.540   0.514   0.542   0.545   0.524   0.518   0.536   0.508   0.510   0.541   0.543   0.544   0.541   0.540   0.543   0.545   0.546   0.506   0.541   0.518   0.509   0.532   0.544   0.505   0.542   0.531   0.535   0.518   0.507   0.507   0.542   0.514   0.520   0.505   0.535   0.520   0.532   0.540   0.539   0.528   0.539   0.541   0.544   0.508   0.531   0.536   0.527   0.528   0.533   0.545   0.545   0.518   0.518   0.522   0.523   0.533   0.530   0.530   0.506   0.542   0.545   0.504   0.507   0.540   0.544   0.516   0.524   0.505   0.521   0.523   0.521   0.532   0.511   0.530   0.543   0.546   0.526   0.509   0.543   0.506   0.527   0.542   0.506   0.509   0.524   0.508   0.525   0.542   0.546   0.546   0.542   0.515   0.536   0.540   0.540   0.536   0.506   0.531   0.545   0.504   0.526   0.510   0.531   0.539   0.537   0.511   0.526   0.544   0.509   0.543   0.511   0.543   0.506   0.508   0.542   0.541   0.534   0.525   0.514   0.510   0.525   0.544   0.508   0.522   0.522   0.532   0.522   0.544   0.530   0.504   0.533   0.514   0.542   0.515   0.537   0.544   0.539   0.517   0.533   0.517   0.517   0.543   0.541   0.509   0.535   0.510   0.527   0.529   0.545   0.541   0.509   0.510   0.514   0.521   0.507   0.520   0.544   0.504   0.542   0.539   0.506   0.541   0.523   0.538   0.545   0.528   0.527   0.543   0.521   0.514   0.541

   Height   Standard deviation at grid points for the w component:
   351.00    0.430   0.452   0.447   0.413   0.433   0.431   0.442   0.433   0.410   0.423   0.445   0.455   0.417   0.437   0.412   0.423   0.426   0.408   0.437   0.425   0.428   0.426   0.437   0.427   0.425   0.432   0.414   0.429   0.426   0.440   0.447   0.421   0.432   0.409   0.440   0.431   0.436   0.434   0.416   0.430   0.417   0.438   0.457   0.459   0.421   0.421   0.432   0.427   0.425   0.431   0.414   0.446   0.440   0.408   0.426   0.430   0.432   0.428   0.429   0.427   0.430   0.427   0.445   0.427   0.433   0.445   0.434   0.412   0.426   0.432   0.449   0.449   0.451   0.428   0.444   0.441   0.427   0.427   0.417   0.442   0.408   0.433   0.426   0.433   0.426   0.426   0.427   0.432   0.416   0.444   0.441   0.443   0.418   0.419   0.425   0.447   0.412   0.420   0.448   0.446   0.426   0.427   0.428   0.449   0.437   0.429   0.419   0.440   0.406   0.427   0.439   0.436   0.433   0.418   0.433   0.422   0.455   0.450   0.426   0.427   0.423   0.429   0.422   0.425   0.427   0.404   0.428   0.442   0.426   0.429   0.408   0.438   0.414   0.436   0.413   0.436   0.432   0.404   0.420   0.427   0.417   0.422   0.430   0.420   0.427   0.442   0.429   0.421   0.418   0.421   0.432   0.420   0.435   0.425   0.429   0.439   0.428   0.424   0.434   0.427   0.421   0.410   0.415   0.432   0.447   0.429   0.430   0.419   0.415   0.411   0.425   0.424   0.450   0.405   0.415   0.419   0.449   0.447   0.420   0.420   0.429   0.451   0.433   0.432   0.424   0.417   0.434   0.430   0.419   0.425   0.434   0.452   0.427   0.447   0.436   0.433   0.431   0.441   0.432   0.417   0.418   0.413   0.428   0.419   0.449   0.440   0.441   0.427   0.422   0.430   0.418   0.434   0.404   0.430   0.425   0.448   0.433   0.421   0.434   0.419   0.448   0.463   0.457   0.405   0.434   0.439   0.429   0.430   0.408   0.430   0.423   0.442   0.413   0.417   0.444   0.425   0.423   0.437   0.413
   326.00    0.438   0.442   0.404   0.428   0.428   0.451   0.399   0.421   0.422   0.431   0.445   0.451   0.446   0.413   0.410   0.414   0.420   0.420   0.429   0.426   0.432   0.443   0.435   0.435   0.415   0.425   0.425   0.444   0.410   0.414   0.416   0.439   0.416   0.431   0.453   0.412   0.438   0.406   0.427   0.412   0.433   0.438   0.449   0.433   0.426   0.418   0.414   0.429   0.429   0.409   0.438   0.445   0.434   0.460   0.457   0.409   0.420   0.443   0.452   0.427   0.408   0.440   0.414   0.444   0.412   0.440   0.423   0.448   0.449   0.430   0.433   0.437   0.436   0.431   0.436   0.419   0.428   0.430   0.443   0.437   0.434   0.433   0.411   0.432   0.413   0.442   0.437   0.437   0.426   0.424   0.437   0.417   0.416   0.446   0.422   0.425   0.419   0.446   0.410   0.446   0.407   0.428   0.420   0.427   0.428   0.419   0.442   0.431   0.435   0.433   0.450   0.405   0.424   0.423   0.437   0.423   0.444   0.433   0.416   0.428   0.433   0.452   0.406   0.438   0.437   0.437   0.444   0.441   0.428   0.434   0.444   0.417   0.443   0.416   0.440   0.433   0.444   0.444   0.441   0.458   0.434   0.429   0.425   0.430   0.428   0.443   0.436   0.446   0.424   0.417   0.411   0.433   0.440   0.430   0.421   0.426   0.456   0.407   0.415   0.410   0.442   0.431   0.438   0.414   0.426   0.404   0.422   0.429   0.445   0.419   0.424   0.421   0.412   0.426   0.414   0.408   0.436   0.421   0.418   0.442   0.453   0.433   0.420   0.427   0.405   0.424   0.424   0.418   0.432   0.441   0.437   0.442   0.425   0.446   0.417   0.415   0.409   0.429   0.416   0.421   0.433   0.457   0.443   0.452   0.427   0.407   0.441   0.403   0.422   0.441   0.423   0.426   0.439   0.434   0.429   0.451   0.405   0.443   0.425   0.437   0.417   0.447   0.452   0.440   0.428   0.441   0.416   0.436   0.417   0.440   0.427   0.429   0.414   0.442   0.436   0.431   0.424   0.436   0.429
   301.00    0.419   0.446   0.440   0.451   0.420   0.456   0.460   0.436   0.435   0.429   0.436   0.421   0.438   0.418   0.431   0.458   0.456   0.435   0.440   0.428   0.409   0.420   0.428   0.428   0.409   0.442   0.426   0.413   0.427   0.407   0.440   0.429   0.430   0.439   0.424   0.429   0.424   0.445   0.437   0.434   0.412   0.423   0.452   0.400   0.434   0.440   0.426   0.430   0.441   0.435   0.442   0.437   0.426   0.427   0.450   0.425   0.450   0.449   0.456   0.439   0.428   0.448   0.436   0.427   0.439   0.420   0.421   0.430   0.436   0.436   0.447   0.421   0.434   0.421   0.424   0.447   0.423   0.434   0.451   0.427   0.436   0.447   0.429   0.455   0.459   0.404   0.424   0.418   0.404   0.436   0.443   0.425   0.443   0.428   0.405   0.431   0.430   0.414   0.448   0.443   0.417   0.436   0.428   0.437   0.435   0.410   0.443   0.402   0.421   0.429   0.444   0.447   0.417   0.444   0.437   0.434   0.434   0.437   0.433   0.427   0.418   0.425   0.429   0.437   0.443   0.418   0.420   0.425   0.417   0.449   0.441   0.412   0.418   0.425   0.422   0.428   0.429   0.408   0.433   0.431   0.443   0.439   0.426   0.437   0.423   0.427   0.431   0.432   0.439   0.434   0.436   0.429   0.422   0.425   0.420   0.446   0.429   0.429   0.430   0.438   0.436   0.431   0.415   0.432   0.452   0.444   0.435   0.412   0.434   0.417   0.431   0.412   0.425   0.434   0.407   0.423   0.441   0.432   0.433   0.441   0.430   0.428   0.418   0.430   0.438   0.422   0.451   0.439   0.428   0.407   0.425   0.410   0.431   0.446   0.434   0.418   0.422   0.437   0.411   0.433   0.418   0.446   0.456   0.435   0.423   0.436   0.439   0.453   0.447   0.431   0.429   0.436   0.425   0.433   0.421   0.420   0.428   0.433   0.423   0.428   0.428   0.442   0.429   0.442   0.415   0.441   0.411   0.439   0.429   0.405   0.416   0.424   0.417   0.445   0.412   0.434   0.449   0.432   0.411
   276.00    0.430   0.429   0.407   0.426   0.406   0.431   0.446   0.422   0.412   0.422   0.450   0.441   0.425   0.419   0.422   0.445   0.462   0.402   0.437   0.432   0.431   0.436   0.425   0.432   0.431   0.449   0.448   0.408   0.429   0.449   0.412   0.415   0.420   0.416   0.422   0.437   0.412   0.433   0.420   0.441   0.412   0.428   0.415   0.427   0.429   0.420   0.426   0.420   0.450   0.414   0.449   0.413   0.428   0.416   0.426   0.427   0.425   0.426   0.431   0.419   0.438   0.454   0.414   0.418   0.443   0.436   0.419   0.443   0.415   0.412   0.437   0.431   0.407   0.436   0.447   0.453   0.415   0.423   0.436   0.423   0.438   0.451   0.439   0.436   0.434   0.421   0.443   0.445   0.429   0.441   0.426   0.415   0.439   0.429   0.415   0.425   0.440   0.456   0.412   0.417   0.419   0.445   0.440   0.435   0.426   0.434   0.422   0.453   0.447   0.438   0.412   0.439   0.456   0.434   0.404   0.443   0.460   0.433   0.429   0.422   0.453   0.415   0.439   0.418   0.426   0.425   0.442   0.434   0.422   0.448   0.440   0.423   0.418   0.410   0.419   0.440   0.434   0.421   0.428   0.443   0.432   0.449   0.423   0.432   0.419   0.430   0.431   0.419   0.410   0.434   0.419   0.419   0.426   0.412   0.436   0.437   0.441   0.431   0.421   0.410   0.422   0.421   0.408   0.428   0.425   0.440   0.424   0.415   0.445   0.418   0.423   0.415   0.425   0.423   0.430   0.438   0.420   0.434   0.431   0.435   0.451   0.420   0.436   0.444   0.429   0.426   0.426   0.422   0.437   0.450   0.433   0.432   0.428   0.428   0.420   0.433   0.426   0.453   0.456   0.440   0.432   0.415   0.436   0.451   0.442   0.443   0.424   0.431   0.436   0.432   0.439   0.412   0.433   0.451   0.460   0.453   0.420   0.432   0.442   0.425   0.417   0.415   0.434   0.439   0.421   0.422   0.420   0.420   0.410   0.435   0.434   0.423   0.434   0.459   0.405   0.447   0.454   0.403   0.427
   251.00    0.434   0.421   0.440   0.431   0.451   0.440   0.435   0.431   0.414   0.435   0.417   0.424   0.415   0.443   0.417   0.443   0.453   0.447   0.433   0.409   0.417   0.423   0.432   0.431   0.437   0.425   0.411   0.426   0.443   0.423   0.430   0.421   0.433   0.436   0.436   0.421   0.416   0.435   0.425   0.417   0.440   0.429   0.412   0.426   0.421   0.425   0.420   0.417   0.432   0.444   0.448   0.431   0.429   0.419   0.438   0.438   0.437   0.443   0.424   0.431   0.426   0.424   0.431   0.423   0.431   0.401   0.438   0.404   0.432   0.406   0.431   0.426   0.435   0.433   0.443   0.444   0.423   0.411   0.435   0.426   0.417   0.429   0.431   0.445   0.410   0.438   0.437   0.412   0.434   0.434   0.429   0.443   0.441   0.427   0.420   0.448   0.443   0.433   0.439   0.418   0.426   0.448   0.426   0.425   0.411   0.422   0.429   0.444   0.417   0.416   0.438   0.439   0.433   0.440   0.437   0.430   0.452   0.440   0.445   0.410   0.426   0.428   0.417   0.441   0.422   0.418   0.431   0.425   0.436   0.419   0.414   0.411   0.426   0.420   0.423   0.418   0.426   0.430   0.434   0.423   0.416   0.417   0.433   0.444   0.444   0.421   0.431   0.430   0.436   0.438   0.431   0.447   0.414   0.406   0.427   0.419   0.444   0.402   0.412   0.441   0.447   0.430   0.429   0.441   0.410   0.435   0.448   0.430   0.427   0.438   0.429   0.423   0.441   0.400   0.426   0.440   0.428   0.450   0.424   0.435   0.439   0.414   0.408   0.416   0.439   0.400   0.439   0.440   0.430   0.433   0.443   0.409   0.413   0.433   0.433   0.430   0.427   0.428   0.449   0.418   0.432   0.443   0.433   0.427   0.428   0.434   0.441   0.433   0.439   0.432   0.445   0.449   0.441   0.441   0.420   0.436   0.443   0.424   0.428   0.426   0.414   0.448   0.405   0.438   0.414   0.428   0.436   0.405   0.416   0.422   0.442   0.418   0.436   0.428   0.452   0.437   0.438   0.433   0.429
   226.00    0.424   0.433   0.420   0.422   0.434   0.412   0.427   0.412   0.437   0.427   0.426   0.410   0.417   0.416   0.420   0.441   0.449   0.425   0.428   0.427   0.450   0.436   0.420   0.434   0.430   0.415   0.421   0.444   0.405   0.426   0.435   0.440   0.447   0.404   0.448   0.410   0.451   0.409   0.422   0.414   0.440   0.445   0.454   0.438   0.418   0.432   0.428   0.434   0.435   0.455   0.415   0.429   0.442   0.438   0.420   0.426   0.430   0.430   0.413   0.424   0.436   0.423   0.422   0.429   0.424   0.442   0.451   0.445   0.423   0.424   0.429   0.438   0.410   0.437   0.409   0.418   0.426   0.416   0.437   0.416   0.447   0.414   0.417   0.431   0.432   0.452   0.416   0.443   0.421   0.435   0.436   0.437   0.445   0.433   0.426   0.414   0.434   0.426   0.456   0.401   0.441   0.443   0.445   0.431   0.420   0.424   0.428   0.422   0.445   0.399   0.438   0.438   0.436   0.453   0.419   0.421   0.408   0.440   0.435   0.437   0.427   0.410   0.439   0.416   0.444   0.431   0.431   0.412   0.443   0.435   0.409   0.425   0.438   0.416   0.423   0.407   0.418   0.430   0.428   0.446   0.428   0.440   0.462   0.420   0.445   0.424   0.457   0.440   0.410   0.411   0.429   0.429   0.443   0.427   0.421   0.439   0.447   0.459   0.458   0.422   0.445   0.420   0.432   0.425   0.415   0.424   0.428   0.420   0.413   0.427   0.426   0.446   0.445   0.444   0.441   0.408   0.438   0.431   0.423   0.428   0.431   0.457   0.415   0.423   0.444   0.437   0.446   0.429   0.425   0.419   0.434   0.458   0.410   0.417   0.419   0.415   0.426   0.428   0.422   0.421   0.431   0.415   0.410   0.426   0.424   0.421   0.426   0.437   0.428   0.441   0.410   0.439   0.428   0.428   0.440   0.451   0.462   0.404   0.422   0.406   0.430   0.410   0.428   0.426   0.415   0.433   0.437   0.441   0.429   0.412   0.428   0.422   0.433   0.446   0.412   0.431   0.412   0.411   0.435
   201.00    0.424   0.427   0.412   0.407   0.430   0.429   0.455   0.414   0.446   0.402   0.424   0.424   0.411   0.423   0.420   0.421   0.426   0.422   0.407   0.434   0.448   0.418   0.428   0.446   0.433   0.427   0.431   0.405   0.437   0.438   0.418   0.438   0.444   0.435   0.431   0.420   0.436   0.446   0.425   0.449   0.413   0.432   0.446   0.414   0.431   0.426   0.448   0.417   0.444   0.426   0.449   0.421   0.430   0.427   0.421   0.430   0.425   0.413   0.419   0.414   0.436   0.432   0.445   0.453   0.406   0.447   0.410   0.438   0.412   0.431   0.435   0.428   0.434   0.452   0.432   0.423   0.431   0.435   0.442   0.446   0.420   0.442   0.408   0.432   0.405   0.426   0.433   0.430   0.413   0.410   0.431   0.414   0.424   0.414   0.447   0.421   0.408   0.422   0.431   0.453   0.427   0.435   0.423   0.424   0.427   0.443   0.439   0.418   0.432   0.454   0.443   0.444   0.429   0.434   0.430   0.438   0.440   0.432   0.444   0.430   0.427   0.428   0.430   0.428   0.435   0.418   0.411   0.440   0.436   0.450   0.435   0.438   0.432   0.417   0.418   0.427   0.436   0.439   0.413   0.430   0.406   0.422   0.443   0.439   0.426   0.424   0.434   0.446   0.431   0.420   0.427   0.426   0.431   0.429   0.446   0.448   0.440   0.436   0.450   0.446   0.417   0.408   0.427   0.430   0.410   0.421   0.445   0.412   0.422   0.424   0.422   0.409   0.439   0.417   0.426   0.431   0.430   0.431   0.439   0.425   0.423   0.438   0.431   0.451   0.431   0.408   0.424   0.428   0.416   0.421   0.418   0.445   0.443   0.415   0.443   0.450   0.442   0.418   0.417   0.430   0.408   0.435   0.432   0.421   0.420   0.413   0.425   0.438   0.413   0.427   0.439   0.423   0.417   0.440   0.424   0.426   0.453   0.459   0.447   0.425   0.422   0.431   0.433   0.446   0.432   0.428   0.439   0.424   0.407   0.428   0.434   0.417   0.440   0.408   0.432   0.426   0.427   0.419   0.440
   176.00    0.419   0.429   0.428   0.430   0.457   0.402   0.422   0.427   0.425   0.446   0.454   0.441   0.418   0.442   0.429   0.426   0.430   0.444   0.426   0.420   0.425   0.428   0.411   0.424   0.412   0.430   0.417   0.424   0.448   0.417   0.411   0.433   0.439   0.427   0.431   0.425   0.414   0.419   0.429   0.423   0.419   0.447   0.445   0.402   0.429   0.427   0.452   0.455   0.408   0.428   0.425   0.429   0.415   0.434   0.431   0.416   0.449   0.428   0.448   0.411   0.410   0.435   0.417   0.428   0.453   0.412   0.431   0.440   0.449   0.440   0.410   0.435   0.446   0.415   0.435   0.424   0.422   0.451   0.407   0.440   0.461   0.453   0.431   0.421   0.410   0.426   0.411   0.429   0.440   0.446   0.437   0.430   0.441   0.429   0.430   0.411   0.432   0.439   0.444   0.427   0.448   0.429   0.434   0.420   0.406   0.437   0.450   0.440   0.448   0.430   0.416   0.433   0.400   0.427   0.436   0.448   0.425   0.426   0.429   0.408   0.437   0.434   0.413   0.416   0.442   0.430   0.451   0.443   0.404   0.432   0.448   0.432   0.413   0.429   0.409   0.435   0.435   0.422   0.445   0.421   0.445   0.454   0.428   0.410   0.426   0.420   0.424   0.422   0.429   0.429   0.451   0.435   0.436   0.411   0.427   0.418   0.418   0.424   0.442   0.417   0.432   0.427   0.406   0.415   0.418   0.431   0.450   0.446   0.443   0.407   0.427   0.428   0.412   0.443   0.423   0.434   0.420   0.406   0.442   0.449   0.434   0.415   0.428   0.428   0.438   0.409   0.436   0.434   0.415   0.428   0.421   0.436   0.424   0.415   0.413   0.437   0.430   0.450   0.425   0.446   0.422   0.416   0.422   0.450   0.457   0.405   0.431   0.430   0.417   0.433   0.426   0.416   0.430   0.419   0.430   0.437   0.436   0.453   0.422   0.408   0.427   0.430   0.420   0.424   0.410   0.443   0.426   0.407   0.410   0.427   0.433   0.438   0.452   0.438   0.446   0.418   0.427   0.443   0.432
   151.00    0.443   0.408   0.425   0.422   0.441   0.436   0.417   0.420   0.424   0.433   0.419   0.441   0.442   0.429   0.434   0.453   0.407   0.426   0.435   0.411   0.446   0.427   0.422   0.418   0.417   0.429   0.460   0.447   0.402   0.436   0.411   0.442   0.450   0.436   0.438   0.401   0.431   0.410   0.423   0.431   0.429   0.424   0.420   0.446   0.451   0.406   0.423   0.447   0.423   0.424   0.440   0.413   0.413   0.424   0.408   0.426   0.447   0.419   0.424   0.414   0.427   0.452   0.424   0.423   0.423   0.426   0.414   0.419   0.432   0.422   0.447   0.425   0.415   0.426   0.409   0.425   0.450   0.413   0.441   0.442   0.446   0.437   0.432   0.417   0.442   0.451   0.407   0.446   0.423   0.414   0.416   0.414   0.433   0.419   0.445   0.421   0.432   0.431   0.409   0.416   0.416   0.411   0.414   0.420   0.435   0.432   0.428   0.425   0.410   0.422   0.448   0.441   0.458   0.444   0.426   0.435   0.425   0.448   0.408   0.428   0.443   0.424   0.422   0.423   0.434   0.455   0.455   0.436   0.421   0.433   0.421   0.428   0.450   0.418   0.411   0.431   0.426   0.450   0.402   0.431   0.419   0.455   0.422   0.419   0.437   0.440   0.456   0.407   0.424   0.431   0.456   0.409   0.416   0.431   0.451   0.408   0.433   0.430   0.422   0.423   0.432   0.414   0.451   0.427   0.435   0.424   0.438   0.428   0.420   0.435   0.450   0.412   0.429   0.452   0.452   0.407   0.411   0.440   0.439   0.430   0.430   0.426   0.423   0.424   0.433   0.439   0.408   0.438   0.415   0.437   0.427   0.415   0.440   0.407   0.433   0.410   0.429   0.437   0.413   0.443   0.424   0.437   0.405   0.422   0.434   0.434   0.430   0.441   0.422   0.431   0.434   0.426   0.425   0.451   0.416   0.428   0.417   0.417   0.430   0.436   0.437   0.416   0.417   0.426   0.416   0.428   0.422   0.435   0.417   0.438   0.410   0.430   0.431   0.437   0.424   0.426   0.421   0.413   0.412
   126.00    0.435   0.420   0.416   0.432   0.422   0.419   0.436   0.428   0.434   0.418   0.423   0.426   0.436   0.432   0.449   0.440   0.420   0.425   0.434   0.439   0.427   0.448   0.433   0.422   0.441   0.425   0.450   0.453   0.429   0.426   0.429   0.444   0.431   0.414   0.418   0.429   0.430   0.423   0.428   0.448   0.430   0.422   0.432   0.453   0.445   0.417   0.438   0.429   0.424   0.435   0.422   0.445   0.446   0.422   0.431   0.447   0.405   0.442   0.405   0.432   0.447   0.429   0.430   0.409   0.409   0.434   0.441   0.416   0.424   0.414   0.434   0.415   0.443   0.408   0.451   0.446   0.458   0.412   0.446   0.416   0.431   0.402   0.437   0.430   0.435   0.432   0.459   0.431   0.405   0.423   0.426   0.418   0.416   0.407   0.437   0.412   0.418   0.439   0.447   0.410   0.414   0.423   0.432   0.402   0.430   0.427   0.434   0.419   0.424   0.429   0.423   0.419   0.432   0.428   0.433   0.421   0.426   0.412   0.430   0.431   0.451   0.405   0.446   0.402   0.425   0.449   0.459   0.451   0.412   0.426   0.447   0.447   0.451   0.429   0.410   0.452   0.401   0.422   0.429   0.429   0.407   0.427   0.450   0.438   0.451   0.435   0.418   0.445   0.424   0.421   0.428   0.415   0.423   0.439   0.435   0.431   0.407   0.429   0.434   0.428   0.432   0.418   0.438   0.450   0.439   0.417   0.442   0.414   0.412   0.422   0.416   0.430   0.421   0.438   0.433   0.436   0.440   0.429   0.414   0.434   0.424   0.443   0.429   0.428   0.429   0.425   0.419   0.427   0.441   0.449   0.423   0.422   0.425   0.450   0.451   0.428   0.423   0.430   0.439   0.420   0.411   0.407   0.421   0.431   0.451   0.409   0.408   0.428   0.435   0.438   0.421   0.426   0.443   0.434   0.430   0.437   0.439   0.402   0.428   0.442   0.422   0.415   0.429   0.422   0.416   0.424   0.428   0.422   0.425   0.435   0.418   0.424   0.417   0.432   0.408   0.427   0.419   0.421   0.427
   101.00    0.441   0.441   0.432   0.445   0.414   0.416   0.424   0.428   0.436   0.445   0.403   0.439   0.450   0.433   0.456   0.441   0.444   0.438   0.433   0.442   0.417   0.437   0.411   0.414   0.441   0.438   0.430   0.439   0.418   0.446   0.445   0.454   0.410   0.414   0.429   0.429   0.433   0.425   0.418   0.426   0.437   0.428   0.427   0.443   0.422   0.423   0.436   0.417   0.429   0.428   0.426   0.448   0.418   0.415   0.432   0.427   0.424   0.418   0.420   0.433   0.438   0.410   0.428   0.449   0.442   0.450   0.421   0.416   0.438   0.409   0.435   0.424   0.425   0.425   0.428   0.440   0.440   0.430   0.420   0.423   0.422   0.447   0.432   0.427   0.433   0.439   0.450   0.462   0.441   0.440   0.438   0.443   0.428   0.422   0.444   0.448   0.415   0.433   0.442   0.446   0.406   0.427   0.416   0.441   0.448   0.429   0.428   0.413   0.423   0.431   0.413   0.430   0.429   0.428   0.455   0.404   0.434   0.424   0.443   0.428   0.440   0.438   0.446   0.440   0.438   0.423   0.441   0.446   0.431   0.425   0.409   0.427   0.432   0.435   0.419   0.425   0.444   0.450   0.419   0.444   0.409   0.449   0.430   0.425   0.431   0.415   0.422   0.431   0.413   0.413   0.416   0.435   0.434   0.427   0.430   0.429   0.433   0.454   0.427   0.436   0.432   0.415   0.423   0.438   0.404   0.431   0.433   0.426   0.456   0.404   0.448   0.417   0.415   0.415   0.431   0.408   0.428   0.435   0.437   0.409   0.415   0.435   0.409   0.431   0.418   0.422   0.428   0.432   0.446   0.438   0.409   0.438   0.423   0.430   0.454   0.416   0.408   0.430   0.458   0.451   0.413   0.429   0.449   0.418   0.406   0.432   0.416   0.425   0.429   0.427   0.421   0.432   0.430   0.411   0.423   0.426   0.425   0.434   0.437   0.435   0.439   0.419   0.426   0.436   0.405   0.436   0.435   0.406   0.432   0.426   0.433   0.441   0.414   0.427   0.432   0.433   0.416   0.430   0.447
    76.00    0.415   0.424   0.419   0.427   0.438   0.430   0.451   0.427   0.451   0.426   0.436   0.441   0.425   0.426   0.437   0.454   0.444   0.422   0.428   0.412   0.449   0.455   0.444   0.430   0.427   0.445   0.400   0.437   0.407   0.424   0.420   0.435   0.431   0.452   0.443   0.440   0.420   0.414   0.443   0.431   0.411   0.428   0.409   0.423   0.411   0.427   0.434   0.430   0.418   0.431   0.407   0.443   0.408   0.441   0.442   0.431   0.445   0.458   0.445   0.440   0.429   0.418   0.423   0.420   0.438   0.431   0.413   0.419   0.429   0.454   0.415   0.445   0.407   0.427   0.425   0.419   0.419   0.420   0.434   0.452   0.445   0.434   0.426   0.437   0.415   0.433   0.448   0.440   0.445   0.425   0.418   0.416   0.410   0.425   0.414   0.437   0.412   0.409   0.434   0.445   0.439   0.425   0.446   0.423   0.413   0.416   0.435   0.408   0.437   0.450   0.452   0.416   0.433   0.413   0.429   0.426   0.432   0.430   0.448   0.427   0.426   0.426   0.414   0.438   0.428   0.426   0.408   0.417   0.449   0.419   0.436   0.428   0.438   0.446   0.423   0.437   0.410   0.436   0.454   0.431   0.421   0.434   0.434   0.418   0.427   0.439   0.436   0.428   0.449   0.422   0.413   0.433   0.416   0.430   0.419   0.417   0.424   0.454   0.437   0.419   0.431   0.406   0.423   0.411   0.425   0.445   0.424   0.450   0.450   0.457   0.436   0.439   0.429   0.436   0.453   0.404   0.441   0.415   0.430   0.427   0.433   0.428   0.426   0.439   0.417   0.423   0.450   0.426   0.430   0.418   0.423   0.448   0.424   0.427   0.456   0.416   0.428   0.421   0.428   0.451   0.451   0.423   0.447   0.423   0.450   0.457   0.436   0.414   0.446   0.423   0.434   0.417   0.447   0.410   0.429   0.435   0.425   0.442   0.414   0.419   0.441   0.423   0.425   0.433   0.442   0.450   0.418   0.429   0.450   0.407   0.439   0.453   0.414   0.443   0.420   0.421   0.434   0.432   0.449
    51.00    0.416   0.430   0.437   0.410   0.433   0.414   0.431   0.444   0.425   0.411   0.437   0.446   0.424   0.429   0.406   0.430   0.452   0.415   0.419   0.446   0.459   0.449   0.446   0.408   0.445   0.417   0.448   0.454   0.434   0.434   0.430   0.406   0.432   0.424   0.426   0.438   0.436   0.435   0.445   0.419   0.415   0.406   0.436   0.425   0.427   0.436   0.426   0.423   0.438   0.436   0.439   0.417   0.423   0.426   0.442   0.414   0.445   0.451   0.434   0.446   0.447   0.410   0.437   0.450   0.431   0.429   0.431   0.420   0.426   0.430   0.443   0.434   0.448   0.437   0.438   0.405   0.430   0.434   0.411   0.442   0.415   0.427   0.429   0.409   0.429   0.431   0.421   0.413   0.427   0.412   0.430   0.435   0.427   0.426   0.409   0.417   0.425   0.434   0.427   0.433   0.403   0.425   0.418   0.430   0.429   0.426   0.434   0.432   0.425   0.452   0.424   0.425   0.451   0.430   0.423   0.415   0.413   0.447   0.447   0.404   0.443   0.417   0.426   0.431   0.431   0.408   0.426   0.424   0.435   0.425   0.427   0.404   0.428   0.418   0.428   0.437   0.424   0.439   0.447   0.409   0.415   0.442   0.452   0.430   0.422   0.430   0.410   0.428   0.432   0.439   0.436   0.441   0.436   0.421   0.418   0.437   0.457   0.449   0.424   0.429   0.453   0.414   0.433   0.429   0.429   0.411   0.429   0.413   0.425   0.444   0.408   0.427   0.429   0.418   0.446   0.449   0.409   0.419   0.415   0.437   0.450   0.409   0.442   0.403   0.422   0.434   0.411   0.422   0.415   0.418   0.428   0.429   0.436   0.408   0.423   0.436   0.436   0.407   0.412   0.429   0.429   0.424   0.430   0.427   0.441   0.452   0.428   0.414   0.424   0.418   0.415   0.413   0.421   0.421   0.439   0.422   0.426   0.426   0.420   0.429   0.420   0.442   0.417   0.428   0.435   0.459   0.410   0.425   0.452   0.409   0.436   0.447   0.408   0.432   0.442   0.448   0.458   0.404   0.426
    26.00    0.418   0.436   0.416   0.430   0.444   0.425   0.440   0.424   0.431   0.421   0.408   0.416   0.432   0.414   0.425   0.434   0.442   0.417   0.412   0.424   0.439   0.432   0.424   0.423   0.429   0.421   0.412   0.423   0.442   0.433   0.419   0.421   0.423   0.411   0.427   0.418   0.431   0.437   0.444   0.446   0.423   0.437   0.459   0.441   0.425   0.408   0.420   0.434   0.435   0.436   0.417   0.429   0.440   0.433   0.445   0.455   0.448   0.430   0.432   0.423   0.442   0.451   0.430   0.453   0.413   0.444   0.425   0.429   0.410   0.424   0.431   0.449   0.443   0.449   0.447   0.452   0.427   0.426   0.432   0.415   0.441   0.441   0.419   0.449   0.432   0.429   0.431   0.426   0.436   0.453   0.441   0.406   0.417   0.425   0.427   0.426   0.443   0.422   0.428   0.448   0.433   0.456   0.423   0.432   0.414   0.438   0.456   0.411   0.413   0.436   0.446   0.423   0.432   0.435   0.411   0.420   0.446   0.436   0.416   0.424   0.435   0.440   0.422   0.419   0.436   0.441   0.420   0.437   0.439   0.418   0.423   0.439   0.437   0.434   0.438   0.435   0.425   0.432   0.414   0.421   0.433   0.445   0.460   0.400   0.436   0.415   0.451   0.419   0.427   0.425   0.433   0.446   0.415   0.410   0.415   0.438   0.454   0.427   0.441   0.422   0.414   0.445   0.431   0.444   0.430   0.409   0.431   0.422   0.428   0.444   0.425   0.430   0.414   0.426   0.428   0.421   0.429   0.456   0.453   0.444   0.432   0.445   0.442   0.447   0.421   0.436   0.437   0.444   0.417   0.427   0.440   0.410   0.429   0.431   0.453   0.440   0.407   0.424   0.430   0.432   0.415   0.428   0.415   0.422   0.427   0.450   0.403   0.433   0.443   0.436   0.421   0.418   0.428   0.438   0.432   0.442   0.437   0.439   0.446   0.426   0.423   0.415   0.415   0.433   0.421   0.451   0.461   0.411   0.432   0.435   0.416   0.433   0.428   0.433   0.419   0.435   0.454   0.425   0.440
     1.00    0.430   0.441   0.417   0.422   0.441   0.419   0.425   0.417   0.418   0.419   0.438   0.439   0.438   0.418   0.434   0.416   0.430   0.442   0.417   0.430   0.439   0.417   0.435   0.441   0.431   0.422   0.421   0.438   0.433   0.434   0.416   0.442   0.442   0.442   0.433   0.442   0.428   0.423   0.417   0.427   0.428   0.440   0.438   0.441   0.431   0.430   0.419   0.422   0.418   0.430   0.431   0.431   0.440   0.422   0.418   0.423   0.442   0.436   0.421   0.433   0.440   0.443   0.428   0.424   0.441   0.437   0.428   0.438   0.417   0.431   0.439   0.437   0.417   0.419   0.431   0.443   0.417   0.419   0.432   0.430   0.439   0.442   0.418   0.422   0.421   0.418   0.439   0.416   0.441   0.425   0.439   0.443   0.443   0.422   0.440   0.424   0.418   0.428   0.438   0.442   0.418   0.439   0.428   0.441   0.425   0.418   0.423   0.440   0.416   0.420   0.425   0.417   0.431   0.422   0.422   0.420   0.440   0.443   0.443   0.439   0.424   0.426   0.440   0.443   0.433   0.437   0.443   0.429   0.422   0.418   0.441   0.429   0.433   0.416   0.437   0.443   0.422   0.432   0.418   0.439   0.431   0.442   0.432   0.443   0.429   0.431   0.418   0.435   0.435   0.441   0.433   0.441   0.420   0.433   0.417   0.428   0.423   0.438   0.431   0.442   0.431   0.418   0.418   0.429   0.418   0.423   0.435   0.438   0.418   0.427   0.418   0.432   0.420   0.442   0.417   0.430   0.419   0.429   0.432   0.422   0.436   0.417   0.418   0.418   0.431   0.417   0.431   0.437   0.428   0.437   0.418   0.418   0.441   0.442   0.417   0.441   0.443   0.442   0.439   0.418   0.419   0.426   0.442   0.427   0.421   0.426   0.437   0.435   0.443   0.417   0.438   0.424   0.425   0.437   0.416   0.441   0.416   0.421   0.421   0.424   0.432   0.442   0.444   0.421   0.418   0.433   0.437   0.443   0.423   0.441   0.416   0.431   0.433   0.420   0.424   0.442   0.438   0.443   0.416

   Mean standard deviation across all grid points:
      u component:    0.481 m/s
      v component:    0.524 m/s
      w component:    0.429 m/s


U-component (X) statistics from the interpolated hub point:

   Mean =  11.4740 m/s
   TI   =   4.1297 %


Processing complete.  46.465 CPU seconds used.
