
This summary file was generated by TurbSim (from OpenFAST-v3.5.0-dirty) on 28-Nov-2023 at 13:23:33.


ERROR:  ReadInputFile:OpenFInpFile:The input file, "./Test/Cond00_v10.0_PL0.2_TI10/Seed_0/Low_stillToBeModified.inp", was not found.

ABORTING PROGRAM.
