
This summary file was generated by TurbSim (from OpenFAST-v3.4.1-dirty) on 14-Dec-2023 at 13:51:11.


Runtime Options:

   2318573  Random seed #1
    RANLUX  Type of random number generator
         F  Output binary HH turbulence parameters?
         F  Output formatted turbulence parameters?
         F  Output AeroDyn HH files?
         T  Output AeroDyn FF files?
         F  Output BLADED FF files?
         F  Output tower data?
         F  Output HAWC FF files?
         F  Output formatted FF files?
         T  Output coherent turbulence time step file?
 0 -  NONE  IEC turbulence models scaled to exact specified standard deviation


Turbine/Model Specifications:

        35  Vertical grid-point matrix dimension
        33  Horizontal grid-point matrix dimension
     0.300  Time step [seconds]
    10.000  Analysis time [seconds]
    10.000  Usable output time [seconds]
    91.000  Hub height [m]
   170.000  Grid height [m]
   160.000  Grid width [m]
     0.000  Vertical flow angle [degrees]
     0.000  Horizontal flow angle [degrees]


Meteorological Boundary Conditions:

    TIMESR  User-input time series spectral model
       N/A  IEC standard
       N/A  IEC turbulence characteristic
       N/A  IEC turbulence type
       N/A  IEC Extreme Turbulence Model (ETM) "c" parameter [m/s]
       PL   Wind profile type
    88.500  Reference height [m]
    10.000  Reference wind speed [m/s]
       N/A  Jet height [m]
     0.200  Power law exponent
     0.030  Surface roughness length [m]


Non-IEC Meteorological Boundary Conditions:

    45.000  Site latitude [degrees]
     0.050  Gradient Richardson number
     0.481  Friction or shear velocity [m/s]
       N/A  Mixing layer depth [m]
       N/A  Mean hub u'w' Reynolds stress
       N/A  Mean hub u'v' Reynolds stress
       N/A  Mean hub v'w' Reynolds stress


Spatial Coherence Models:

       IEC  u-component coherence model
       IEC  v-component coherence model
       IEC  w-component coherence model
(   12.000, 0.353E-03)  u-component coherence parameters
(   12.000, 0.353E-03)  v-component coherence parameters
(   12.000, 0.353E-03)  w-component coherence parameters
       N/A  Coherence exponent


Coherent Turbulence Scaling Parameters:

.\EventData
            Name of the path containing the coherent turbulence data files
       les  Type of coherent turbulence data files
     1.000  Disturbance scale (ratio of wave height to rotor diameter)
     0.500  Fractional location of tower centerline from right
     0.500  Fractional location of hub height from the bottom of the dataset
    30.000  Minimum start time for coherent structures [seconds]


Profiles from User-Defined Time-Series Input:

  Height   Wind Speed   Horizontal Angle   Vertical Angle
   (m)        (m/s)          (deg)              (deg)    
  ------   ----------   ----------------   --------------
   76.00       9.70          -0.00               -0.00


You have requested that the following file(s) be generated:

   ./Test/Cond00_v10.0_PL0.2_TI10/Case0_wdirp00/Seed_0/TurbSim/HighT9.bts (AeroDyn/TurbSim full-field wind file)


Turbulence Simulation Scaling Parameter Summary:

   Turbulence model used                            =  User-input time series
   Gradient Richardson number                       =    0.050
   Monin-Obukhov (M-O) z/L parameter                =    0.067
   Monin-Obukhov (M-O) length scale                 = 1365.000 m
   Mean wind speed at hub height                    =   10.056 m/s

   Wind profile type                                =  Power law
   Power law exponent                               =    0.200
   Mean shear across rotor disk                     =    0.030 (m/s)/m
   Assumed rotor diameter                           =  160.000 m
   Surface roughness length                         =    0.030 m

   Nyquist frequency of turbulent wind field        =    1.667 Hz

   Number of time steps in the FFT                  =       34
   Number of time steps output                      =       34
   Number of points simulated                       =     1156


Mean Flow Angles:

   Vertical   =   0.0 degrees
   Horizontal =   0.0 degrees

Mean Wind Speed Profile:

   Height    Wind Speed   Horizontal Angle  Vertical Angle  U-comp (X)   V-comp (Y)   W-comp (Z)
     (m)        (m/s)         (degrees)       (degrees)       (m/s)        (m/s)        (m/s)   
   ------    ----------   ----------------  --------------  ----------   ----------   ----------
    171.0       11.41            0.00            0.00         11.41         0.00         0.00
    166.0       11.34            0.00            0.00         11.34         0.00         0.00
    161.0       11.27            0.00            0.00         11.27         0.00         0.00
    156.0       11.20            0.00            0.00         11.20         0.00         0.00
    151.0       11.13            0.00            0.00         11.13         0.00         0.00
    146.0       11.05            0.00            0.00         11.05         0.00         0.00
    141.0       10.98            0.00            0.00         10.98         0.00         0.00
    136.0       10.90            0.00            0.00         10.90         0.00         0.00
    131.0       10.82            0.00            0.00         10.82         0.00         0.00
    126.0       10.73            0.00            0.00         10.73         0.00         0.00
    121.0       10.65            0.00            0.00         10.65         0.00         0.00
    116.0       10.56            0.00            0.00         10.56         0.00         0.00
    111.0       10.46            0.00            0.00         10.46         0.00         0.00
    106.0       10.37            0.00            0.00         10.37         0.00         0.00
    101.0       10.27            0.00            0.00         10.27         0.00         0.00
     96.0       10.16            0.00            0.00         10.16         0.00         0.00
     91.0       10.06            0.00            0.00         10.06         0.00         0.00
     86.0        9.94            0.00            0.00          9.94         0.00         0.00
     81.0        9.82            0.00            0.00          9.82         0.00         0.00
     76.0        9.70            0.00            0.00          9.70         0.00         0.00
     71.0        9.57            0.00            0.00          9.57         0.00         0.00
     66.0        9.43            0.00            0.00          9.43         0.00         0.00
     61.0        9.28            0.00            0.00          9.28         0.00         0.00
     56.0        9.13            0.00            0.00          9.13         0.00         0.00
     51.0        8.96            0.00            0.00          8.96         0.00         0.00
     46.0        8.77            0.00            0.00          8.77         0.00         0.00
     41.0        8.57            0.00            0.00          8.57         0.00         0.00
     36.0        8.35            0.00            0.00          8.35         0.00         0.00
     31.0        8.11            0.00            0.00          8.11         0.00         0.00
     26.0        7.83            0.00            0.00          7.83         0.00         0.00
     21.0        7.50            0.00            0.00          7.50         0.00         0.00
     16.0        7.10            0.00            0.00          7.10         0.00         0.00
     11.0        6.59            0.00            0.00          6.59         0.00         0.00
      6.0        5.84            0.00            0.00          5.84         0.00         0.00
      1.0        4.08            0.00            0.00          4.08         0.00         0.00


Harvested Random Seeds after Generation of the Random Numbers:

       547700 K 1
            0 K 2


Hub-Height Simulated Turbulence Statistical Summary:

   Type of Wind        Min (m/s)   Mean (m/s)    Max (m/s)  Sigma (m/s)       TI (%)
   ----------------    ---------   ----------    ---------  -----------       ------
   Longitudinal (u)         9.30        10.06        11.02        0.416        4.137
   Lateral (v)             -0.76         0.00         0.93        0.454        4.520
   Vertical (w)            -0.78         0.00         0.94        0.423        4.209
   U component              9.30        10.06        11.02        0.416        4.137
   V component             -0.76         0.00         0.93        0.454        4.520
   W component             -0.78         0.00         0.94        0.423        4.209
   Horizontal (U&V)         9.30        10.07        11.02        0.415        4.124
   Total                    9.30        10.08        11.02        0.416        4.126

                       Min Reynolds     Mean Reynolds    Max Reynolds    Correlation
   Product             Stress (m/s)^2   Stress (m/s)^2   Stress (m/s)^2  Coefficient
   ----------------    --------------   --------------   --------------  -----------
   u'w'                     -0.525            -0.076             0.202        -0.429
   u'v'                     -0.403             0.022             0.339         0.117
   v'w'                     -0.444             0.002             0.339         0.013


   Friction Velocity (Ustar)  =      0.275 m/s
   Maximum Instantaneous TKE  =      0.611 (m/s)^2
   Maximum Instantaneous CTKE =      0.319 (m/s)^2


Grid Point Variance Summary:

   Y-coord  -80.00  -75.00  -70.00  -65.00  -60.00  -55.00  -50.00  -45.00  -40.00  -35.00  -30.00  -25.00  -20.00  -15.00  -10.00   -5.00    0.00    5.00   10.00   15.00   20.00   25.00   30.00   35.00   40.00   45.00   50.00   55.00   60.00   65.00   70.00   75.00   80.00

   Height   Standard deviation at grid points for the u component:
   171.00    0.418   0.565   0.595   0.736   0.683   0.452   0.555   0.402   0.518   0.394   0.514   0.361   0.319   0.450   0.625   0.383   0.398   0.358   0.550   0.420   0.538   0.372   0.413   0.417   0.482   0.692   0.636   0.662   0.410   0.447   0.504   0.459   0.493
   166.00    0.387   0.489   0.319   0.565   0.605   0.361   0.371   0.467   0.466   0.588   0.339   0.626   0.673   0.313   0.506   0.492   0.443   0.373   0.526   0.416   0.545   0.375   0.341   0.492   0.435   0.546   0.435   0.440   0.408   0.370   0.481   0.373   0.445
   161.00    0.421   0.471   0.381   0.405   0.608   0.402   0.433   0.541   0.667   0.640   0.628   0.523   0.476   0.549   0.433   0.431   0.362   0.575   0.510   0.488   0.480   0.412   0.412   0.527   0.709   0.421   0.513   0.301   0.479   0.522   0.616   0.367   0.469
   156.00    0.346   0.607   0.634   0.642   0.585   0.581   0.676   0.409   0.569   0.425   0.482   0.404   0.351   0.461   0.492   0.467   0.457   0.560   0.467   0.428   0.458   0.302   0.568   0.397   0.641   0.531   0.653   0.393   0.421   0.519   0.520   0.355   0.520
   151.00    0.600   0.576   0.481   0.488   0.392   0.443   0.560   0.418   0.597   0.464   0.334   0.368   0.469   0.505   0.294   0.464   0.320   0.345   0.334   0.496   0.429   0.438   0.659   0.582   0.623   0.488   0.580   0.613   0.482   0.572   0.341   0.415   0.475
   146.00    0.512   0.596   0.647   0.643   0.540   0.479   0.478   0.362   0.363   0.506   0.586   0.445   0.500   0.585   0.606   0.384   0.479   0.429   0.516   0.589   0.444   0.606   0.721   0.593   0.656   0.485   0.533   0.614   0.510   0.441   0.570   0.655   0.627
   141.00    0.446   0.438   0.650   0.678   0.413   0.385   0.425   0.446   0.587   0.356   0.462   0.417   0.446   0.659   0.578   0.355   0.361   0.442   0.334   0.430   0.350   0.569   0.577   0.393   0.411   0.649   0.644   0.404   0.567   0.445   0.553   0.586   0.427
   136.00    0.468   0.488   0.617   0.735   0.477   0.431   0.386   0.546   0.633   0.356   0.522   0.758   0.437   0.505   0.449   0.476   0.470   0.446   0.457   0.422   0.565   0.531   0.440   0.529   0.637   0.672   0.475   0.617   0.405   0.381   0.384   0.473   0.536
   131.00    0.495   0.622   0.678   0.620   0.457   0.589   0.469   0.498   0.497   0.439   0.537   0.640   0.621   0.607   0.323   0.549   0.393   0.475   0.350   0.510   0.461   0.544   0.366   0.526   0.742   0.418   0.604   0.677   0.625   0.613   0.593   0.456   0.373
   126.00    0.311   0.384   0.443   0.411   0.542   0.504   0.420   0.399   0.537   0.587   0.689   0.361   0.444   0.400   0.345   0.407   0.411   0.325   0.511   0.544   0.406   0.418   0.418   0.443   0.590   0.708   0.650   0.626   0.492   0.614   0.662   0.564   0.493
   121.00    0.524   0.505   0.427   0.416   0.468   0.356   0.545   0.423   0.550   0.491   0.573   0.571   0.396   0.426   0.399   0.533   0.536   0.669   0.650   0.311   0.420   0.437   0.596   0.409   0.538   0.500   0.557   0.496   0.523   0.509   0.642   0.609   0.414
   116.00    0.401   0.450   0.423   0.435   0.650   0.575   0.529   0.440   0.637   0.383   0.499   0.336   0.373   0.466   0.391   0.447   0.575   0.685   0.675   0.392   0.369   0.477   0.590   0.466   0.359   0.377   0.381   0.423   0.425   0.542   0.600   0.588   0.603
   111.00    0.535   0.445   0.318   0.623   0.691   0.682   0.387   0.400   0.474   0.632   0.358   0.402   0.385   0.461   0.467   0.596   0.667   0.703   0.538   0.442   0.437   0.387   0.504   0.426   0.531   0.430   0.455   0.314   0.577   0.531   0.410   0.514   0.532
   106.00    0.435   0.489   0.647   0.681   0.465   0.507   0.497   0.580   0.516   0.464   0.428   0.381   0.334   0.476   0.640   0.626   0.731   0.637   0.530   0.516   0.552   0.465   0.379   0.395   0.526   0.404   0.342   0.381   0.468   0.519   0.398   0.403   0.388
   101.00    0.380   0.411   0.461   0.665   0.660   0.586   0.331   0.545   0.593   0.422   0.388   0.501   0.433   0.403   0.524   0.673   0.709   0.480   0.385   0.547   0.502   0.550   0.444   0.554   0.484   0.349   0.435   0.538   0.394   0.397   0.356   0.502   0.604
    96.00    0.425   0.381   0.537   0.597   0.603   0.689   0.474   0.420   0.609   0.376   0.456   0.383   0.556   0.551   0.316   0.427   0.489   0.382   0.369   0.427   0.464   0.367   0.487   0.593   0.413   0.371   0.450   0.564   0.327   0.377   0.513   0.460   0.514
    91.00    0.381   0.373   0.382   0.445   0.350   0.571   0.740   0.539   0.573   0.688   0.708   0.543   0.583   0.428   0.466   0.373   0.416   0.427   0.451   0.625   0.329   0.422   0.441   0.413   0.402   0.375   0.394   0.349   0.529   0.488   0.531   0.387   0.405
    86.00    0.406   0.412   0.434   0.361   0.387   0.522   0.640   0.639   0.418   0.513   0.496   0.340   0.495   0.592   0.258   0.418   0.640   0.734   0.479   0.540   0.371   0.528   0.308   0.403   0.412   0.427   0.409   0.544   0.288   0.537   0.552   0.495   0.604
    81.00    0.411   0.469   0.488   0.319   0.432   0.415   0.521   0.741   0.796   0.757   0.598   0.616   0.497   0.541   0.530   0.386   0.465   0.491   0.523   0.640   0.651   0.393   0.543   0.422   0.469   0.344   0.361   0.514   0.520   0.629   0.613   0.417   0.494
    76.00    0.718   0.346   0.484   0.613   0.594   0.497   0.599   0.612   0.608   0.579   0.507   0.398   0.409   0.345   0.510   0.396   0.453   0.475   0.332   0.383   0.539   0.625   0.414   0.446   0.317   0.483   0.433   0.459   0.392   0.531   0.385   0.378   0.433
    71.00    0.718   0.669   0.353   0.427   0.568   0.555   0.621   0.439   0.386   0.455   0.429   0.509   0.521   0.581   0.535   0.597   0.362   0.617   0.417   0.485   0.373   0.534   0.376   0.384   0.365   0.386   0.372   0.492   0.540   0.453   0.475   0.381   0.388
    66.00    0.654   0.699   0.383   0.395   0.439   0.556   0.585   0.644   0.419   0.474   0.390   0.444   0.467   0.545   0.490   0.451   0.542   0.632   0.686   0.568   0.390   0.402   0.491   0.350   0.488   0.568   0.472   0.463   0.526   0.630   0.719   0.612   0.509
    61.00    0.596   0.665   0.562   0.295   0.402   0.413   0.483   0.430   0.438   0.481   0.534   0.575   0.430   0.558   0.394   0.434   0.408   0.563   0.627   0.303   0.551   0.480   0.418   0.433   0.375   0.435   0.361   0.575   0.694   0.427   0.603   0.549   0.346
    56.00    0.632   0.463   0.589   0.690   0.517   0.341   0.491   0.424   0.335   0.459   0.414   0.360   0.438   0.464   0.446   0.545   0.326   0.448   0.459   0.305   0.384   0.477   0.523   0.384   0.479   0.358   0.522   0.583   0.490   0.452   0.572   0.416   0.405
    51.00    0.452   0.477   0.509   0.496   0.384   0.478   0.432   0.426   0.409   0.366   0.370   0.595   0.665   0.349   0.523   0.617   0.563   0.516   0.425   0.578   0.507   0.454   0.425   0.344   0.385   0.346   0.460   0.619   0.347   0.414   0.562   0.388   0.367
    46.00    0.363   0.425   0.409   0.309   0.428   0.442   0.404   0.472   0.494   0.422   0.460   0.461   0.401   0.581   0.703   0.736   0.381   0.517   0.460   0.630   0.536   0.560   0.661   0.315   0.463   0.564   0.571   0.623   0.362   0.570   0.501   0.383   0.549
    41.00    0.655   0.520   0.359   0.644   0.398   0.298   0.345   0.470   0.368   0.440   0.394   0.487   0.601   0.563   0.617   0.623   0.508   0.483   0.575   0.695   0.522   0.564   0.412   0.429   0.389   0.408   0.503   0.687   0.493   0.575   0.496   0.360   0.428
    36.00    0.608   0.538   0.704   0.668   0.732   0.540   0.451   0.451   0.417   0.395   0.543   0.555   0.420   0.495   0.454   0.459   0.447   0.607   0.689   0.604   0.462   0.579   0.572   0.388   0.332   0.451   0.364   0.532   0.537   0.551   0.375   0.612   0.352
    31.00    0.498   0.495   0.537   0.452   0.505   0.539   0.536   0.409   0.583   0.389   0.488   0.470   0.314   0.436   0.425   0.459   0.466   0.522   0.689   0.766   0.426   0.473   0.427   0.406   0.464   0.520   0.659   0.400   0.512   0.471   0.350   0.501   0.677
    26.00    0.434   0.330   0.418   0.432   0.397   0.390   0.593   0.634   0.730   0.717   0.368   0.360   0.439   0.394   0.377   0.365   0.410   0.356   0.520   0.583   0.520   0.386   0.445   0.485   0.452   0.420   0.550   0.322   0.392   0.425   0.474   0.353   0.579
    21.00    0.498   0.433   0.417   0.523   0.375   0.640   0.517   0.692   0.588   0.593   0.533   0.396   0.541   0.395   0.388   0.365   0.483   0.466   0.565   0.594   0.302   0.427   0.352   0.395   0.330   0.405   0.376   0.546   0.321   0.402   0.438   0.349   0.565
    16.00    0.474   0.346   0.393   0.620   0.652   0.552   0.595   0.680   0.351   0.435   0.418   0.489   0.502   0.362   0.304   0.350   0.576   0.340   0.485   0.519   0.405   0.428   0.466   0.603   0.489   0.502   0.288   0.487   0.518   0.377   0.386   0.279   0.500
    11.00    0.387   0.498   0.461   0.595   0.537   0.434   0.456   0.560   0.496   0.342   0.382   0.378   0.473   0.534   0.464   0.570   0.602   0.514   0.584   0.515   0.410   0.409   0.492   0.452   0.323   0.455   0.715   0.433   0.392   0.456   0.569   0.507   0.492
     6.00    0.505   0.491   0.474   0.514   0.437   0.345   0.506   0.571   0.451   0.336   0.441   0.429   0.467   0.444   0.483   0.646   0.642   0.521   0.631   0.642   0.396   0.451   0.392   0.405   0.476   0.680   0.684   0.598   0.567   0.491   0.522   0.482   0.454
     1.00    0.499   0.589   0.543   0.332   0.390   0.528   0.542   0.577   0.454   0.539   0.456   0.433   0.496   0.481   0.490   0.602   0.594   0.436   0.532   0.618   0.670   0.379   0.437   0.433   0.343   0.459   0.586   0.631   0.454   0.515   0.373   0.457   0.507

   Height   Standard deviation at grid points for the v component:
   171.00    0.542   0.638   0.555   0.581   0.363   0.518   0.524   0.566   0.439   0.475   0.505   0.377   0.490   0.421   0.422   0.474   0.421   0.532   0.484   0.536   0.524   0.424   0.405   0.366   0.441   0.504   0.478   0.486   0.500   0.493   0.450   0.383   0.458
   166.00    0.476   0.398   0.584   0.740   0.490   0.622   0.502   0.487   0.414   0.563   0.345   0.521   0.535   0.371   0.395   0.424   0.351   0.525   0.487   0.616   0.530   0.478   0.513   0.470   0.447   0.503   0.400   0.541   0.372   0.391   0.650   0.744   0.522
   161.00    0.379   0.533   0.558   0.608   0.580   0.616   0.468   0.424   0.486   0.471   0.444   0.434   0.445   0.584   0.679   0.681   0.658   0.692   0.644   0.413   0.548   0.445   0.518   0.631   0.317   0.382   0.550   0.532   0.462   0.551   0.576   0.644   0.596
   156.00    0.443   0.482   0.428   0.465   0.425   0.449   0.462   0.380   0.429   0.387   0.562   0.342   0.660   0.567   0.627   0.506   0.646   0.414   0.440   0.578   0.539   0.635   0.691   0.428   0.462   0.428   0.551   0.525   0.717   0.509   0.549   0.559   0.524
   151.00    0.573   0.423   0.441   0.471   0.481   0.557   0.567   0.405   0.482   0.367   0.482   0.577   0.654   0.856   0.769   0.516   0.683   0.456   0.582   0.416   0.591   0.458   0.579   0.630   0.366   0.417   0.534   0.648   0.664   0.728   0.474   0.453   0.425
   146.00    0.454   0.554   0.378   0.386   0.489   0.517   0.541   0.682   0.452   0.459   0.437   0.574   0.726   0.756   0.707   0.586   0.527   0.577   0.578   0.611   0.564   0.466   0.477   0.470   0.523   0.413   0.434   0.433   0.511   0.408   0.596   0.378   0.435
   141.00    0.556   0.480   0.420   0.499   0.339   0.476   0.420   0.490   0.601   0.386   0.325   0.554   0.580   0.725   0.458   0.503   0.472   0.591   0.444   0.697   0.456   0.448   0.399   0.455   0.362   0.458   0.433   0.402   0.357   0.482   0.513   0.413   0.435
   136.00    0.479   0.563   0.337   0.424   0.444   0.409   0.468   0.408   0.470   0.580   0.366   0.578   0.650   0.731   0.426   0.411   0.463   0.407   0.657   0.744   0.506   0.417   0.462   0.497   0.550   0.475   0.357   0.522   0.459   0.363   0.418   0.597   0.670
   131.00    0.392   0.654   0.690   0.404   0.428   0.402   0.559   0.465   0.473   0.443   0.526   0.600   0.478   0.578   0.547   0.366   0.400   0.408   0.500   0.633   0.659   0.387   0.444   0.413   0.418   0.455   0.409   0.555   0.421   0.641   0.553   0.701   0.538
   126.00    0.536   0.624   0.511   0.466   0.401   0.450   0.464   0.663   0.375   0.429   0.506   0.478   0.456   0.402   0.617   0.390   0.509   0.436   0.390   0.407   0.639   0.621   0.562   0.372   0.426   0.371   0.446   0.440   0.408   0.545   0.604   0.592   0.473
   121.00    0.393   0.478   0.503   0.386   0.522   0.349   0.421   0.498   0.534   0.553   0.469   0.446   0.440   0.669   0.542   0.429   0.548   0.392   0.617   0.671   0.616   0.523   0.564   0.430   0.401   0.451   0.413   0.428   0.485   0.497   0.520   0.501   0.534
   116.00    0.571   0.428   0.481   0.358   0.343   0.437   0.542   0.432   0.494   0.410   0.444   0.521   0.646   0.595   0.464   0.512   0.481   0.430   0.488   0.557   0.394   0.469   0.341   0.452   0.526   0.392   0.552   0.430   0.486   0.474   0.385   0.471   0.372
   111.00    0.556   0.407   0.513   0.415   0.493   0.533   0.463   0.396   0.439   0.502   0.597   0.526   0.549   0.499   0.461   0.439   0.549   0.399   0.522   0.404   0.424   0.391   0.479   0.565   0.324   0.495   0.438   0.394   0.380   0.417   0.424   0.537   0.429
   106.00    0.443   0.470   0.508   0.432   0.523   0.569   0.628   0.602   0.407   0.497   0.508   0.433   0.594   0.382   0.517   0.496   0.526   0.587   0.552   0.533   0.528   0.467   0.594   0.421   0.509   0.605   0.446   0.362   0.496   0.475   0.402   0.449   0.454
   101.00    0.514   0.589   0.598   0.485   0.443   0.686   0.555   0.513   0.369   0.513   0.518   0.482   0.488   0.527   0.475   0.448   0.495   0.547   0.360   0.338   0.471   0.638   0.611   0.458   0.356   0.444   0.512   0.410   0.427   0.453   0.575   0.371   0.481
    96.00    0.375   0.373   0.468   0.416   0.540   0.656   0.695   0.638   0.556   0.535   0.467   0.424   0.585   0.466   0.392   0.447   0.544   0.465   0.544   0.700   0.751   0.582   0.446   0.413   0.432   0.472   0.486   0.463   0.462   0.470   0.573   0.611   0.607
    91.00    0.576   0.665   0.625   0.427   0.575   0.425   0.477   0.504   0.511   0.443   0.664   0.544   0.521   0.738   0.658   0.479   0.454   0.520   0.556   0.518   0.641   0.709   0.554   0.427   0.454   0.615   0.511   0.622   0.468   0.478   0.497   0.452   0.392
    86.00    0.522   0.457   0.524   0.372   0.468   0.516   0.540   0.496   0.490   0.595   0.558   0.763   0.906   0.768   0.665   0.467   0.563   0.510   0.376   0.551   0.437   0.598   0.712   0.343   0.456   0.531   0.586   0.567   0.435   0.393   0.480   0.534   0.573
    81.00    0.415   0.450   0.491   0.414   0.385   0.467   0.523   0.689   0.701   0.443   0.594   0.655   0.748   0.711   0.523   0.577   0.440   0.482   0.373   0.528   0.554   0.397   0.609   0.538   0.575   0.389   0.534   0.516   0.487   0.736   0.851   0.583   0.683
    76.00    0.476   0.423   0.524   0.465   0.412   0.424   0.471   0.571   0.522   0.396   0.456   0.501   0.569   0.530   0.506   0.408   0.486   0.363   0.547   0.532   0.610   0.405   0.471   0.560   0.625   0.338   0.451   0.438   0.384   0.602   0.626   0.615   0.717
    71.00    0.667   0.738   0.473   0.549   0.387   0.493   0.425   0.397   0.531   0.527   0.445   0.339   0.434   0.394   0.483   0.477   0.444   0.535   0.480   0.599   0.469   0.478   0.396   0.428   0.486   0.550   0.421   0.597   0.650   0.392   0.484   0.410   0.503
    66.00    0.649   0.697   0.446   0.436   0.425   0.402   0.525   0.395   0.367   0.436   0.498   0.702   0.438   0.479   0.358   0.444   0.386   0.444   0.463   0.387   0.557   0.408   0.462   0.489   0.437   0.530   0.462   0.470   0.542   0.397   0.469   0.342   0.469
    61.00    0.638   0.764   0.539   0.527   0.411   0.556   0.679   0.495   0.465   0.445   0.520   0.569   0.658   0.393   0.441   0.415   0.430   0.445   0.566   0.559   0.421   0.513   0.401   0.528   0.374   0.461   0.642   0.726   0.705   0.796   0.744   0.526   0.338
    56.00    0.541   0.665   0.525   0.560   0.482   0.409   0.619   0.470   0.405   0.507   0.491   0.456   0.519   0.582   0.377   0.384   0.371   0.628   0.448   0.413   0.512   0.545   0.401   0.447   0.384   0.463   0.624   0.806   0.906   0.864   0.583   0.441   0.454
    51.00    0.458   0.517   0.521   0.475   0.376   0.619   0.734   0.442   0.515   0.388   0.436   0.558   0.396   0.583   0.539   0.550   0.525   0.567   0.620   0.576   0.488   0.439   0.431   0.576   0.398   0.487   0.613   0.658   0.697   0.604   0.547   0.440   0.489
    46.00    0.566   0.482   0.467   0.479   0.468   0.527   0.602   0.438   0.587   0.399   0.477   0.357   0.463   0.538   0.535   0.480   0.471   0.451   0.446   0.447   0.510   0.353   0.519   0.463   0.526   0.632   0.442   0.542   0.630   0.336   0.459   0.444   0.440
    41.00    0.500   0.353   0.504   0.340   0.525   0.475   0.466   0.473   0.689   0.539   0.694   0.362   0.435   0.548   0.340   0.450   0.529   0.443   0.515   0.496   0.497   0.421   0.406   0.425   0.449   0.527   0.612   0.654   0.596   0.489   0.468   0.367   0.562
    36.00    0.604   0.696   0.442   0.496   0.553   0.463   0.434   0.505   0.611   0.682   0.718   0.520   0.513   0.399   0.441   0.482   0.413   0.497   0.341   0.459   0.456   0.392   0.397   0.448   0.599   0.403   0.643   0.660   0.505   0.425   0.360   0.399   0.601
    31.00    0.510   0.458   0.547   0.400   0.574   0.405   0.512   0.413   0.490   0.518   0.500   0.639   0.620   0.675   0.471   0.468   0.448   0.480   0.379   0.416   0.466   0.388   0.494   0.558   0.678   0.580   0.752   0.433   0.467   0.390   0.554   0.700   0.475
    26.00    0.503   0.487   0.506   0.404   0.448   0.490   0.554   0.471   0.433   0.413   0.513   0.547   0.493   0.387   0.490   0.483   0.376   0.489   0.442   0.468   0.409   0.479   0.494   0.368   0.446   0.633   0.667   0.624   0.630   0.557   0.568   0.523   0.576
    21.00    0.472   0.398   0.519   0.398   0.443   0.460   0.481   0.433   0.408   0.499   0.464   0.500   0.522   0.461   0.508   0.446   0.511   0.409   0.475   0.405   0.464   0.346   0.489   0.399   0.480   0.451   0.512   0.546   0.536   0.612   0.428   0.393   0.491
    16.00    0.403   0.463   0.510   0.501   0.428   0.427   0.395   0.448   0.530   0.647   0.545   0.472   0.514   0.341   0.341   0.447   0.439   0.594   0.403   0.468   0.411   0.527   0.393   0.459   0.386   0.480   0.364   0.590   0.415   0.579   0.438   0.528   0.396
    11.00    0.424   0.378   0.390   0.558   0.727   0.744   0.655   0.399   0.728   0.674   0.606   0.525   0.532   0.646   0.430   0.640   0.589   0.528   0.415   0.517   0.488   0.452   0.455   0.558   0.370   0.412   0.479   0.626   0.590   0.546   0.590   0.458   0.353
     6.00    0.442   0.543   0.645   0.722   0.717   0.631   0.685   0.699   0.767   0.657   0.541   0.554   0.419   0.478   0.619   0.638   0.486   0.490   0.464   0.467   0.356   0.468   0.523   0.435   0.469   0.452   0.505   0.540   0.479   0.507   0.675   0.654   0.530
     1.00    0.520   0.475   0.564   0.610   0.625   0.461   0.481   0.573   0.451   0.542   0.648   0.413   0.465   0.508   0.452   0.585   0.613   0.638   0.455   0.431   0.539   0.486   0.586   0.374   0.478   0.408   0.486   0.581   0.391   0.486   0.574   0.617   0.674

   Height   Standard deviation at grid points for the w component:
   171.00    0.379   0.380   0.344   0.336   0.388   0.399   0.414   0.352   0.399   0.343   0.384   0.370   0.335   0.323   0.439   0.378   0.535   0.387   0.367   0.352   0.405   0.428   0.376   0.338   0.389   0.431   0.428   0.483   0.446   0.450   0.345   0.358   0.343
   166.00    0.366   0.366   0.413   0.428   0.446   0.510   0.516   0.362   0.476   0.427   0.426   0.332   0.397   0.377   0.379   0.387   0.431   0.426   0.309   0.398   0.374   0.508   0.480   0.387   0.333   0.356   0.398   0.387   0.430   0.426   0.348   0.381   0.371
   161.00    0.468   0.505   0.466   0.388   0.322   0.354   0.366   0.420   0.462   0.462   0.327   0.341   0.408   0.345   0.385   0.339   0.399   0.474   0.418   0.419   0.474   0.511   0.422   0.440   0.436   0.407   0.453   0.459   0.299   0.329   0.378   0.426   0.339
   156.00    0.391   0.455   0.321   0.414   0.459   0.416   0.429   0.340   0.371   0.319   0.375   0.379   0.363   0.354   0.397   0.458   0.436   0.394   0.351   0.423   0.478   0.387   0.373   0.423   0.428   0.428   0.464   0.446   0.417   0.424   0.529   0.362   0.420
   151.00    0.393   0.407   0.343   0.492   0.495   0.335   0.390   0.369   0.369   0.367   0.408   0.342   0.393   0.346   0.411   0.434   0.396   0.363   0.396   0.368   0.339   0.396   0.352   0.398   0.374   0.455   0.501   0.328   0.395   0.415   0.512   0.450   0.440
   146.00    0.527   0.559   0.351   0.509   0.460   0.383   0.385   0.385   0.369   0.364   0.408   0.404   0.412   0.417   0.339   0.441   0.467   0.412   0.355   0.413   0.434   0.334   0.364   0.384   0.379   0.437   0.428   0.389   0.362   0.397   0.449   0.406   0.440
   141.00    0.491   0.555   0.487   0.514   0.492   0.443   0.455   0.358   0.421   0.428   0.354   0.333   0.376   0.368   0.409   0.412   0.375   0.359   0.342   0.440   0.386   0.440   0.338   0.311   0.427   0.428   0.323   0.395   0.372   0.336   0.369   0.373   0.486
   136.00    0.435   0.473   0.464   0.368   0.373   0.385   0.415   0.423   0.374   0.412   0.434   0.374   0.335   0.447   0.404   0.383   0.433   0.458   0.318   0.414   0.385   0.419   0.348   0.386   0.457   0.536   0.447   0.478   0.551   0.468   0.411   0.520   0.470
   131.00    0.439   0.440   0.541   0.410   0.442   0.325   0.340   0.312   0.376   0.379   0.396   0.333   0.345   0.424   0.460   0.443   0.387   0.387   0.452   0.428   0.368   0.316   0.346   0.361   0.413   0.489   0.422   0.408   0.459   0.482   0.466   0.389   0.530
   126.00    0.359   0.455   0.460   0.462   0.451   0.429   0.344   0.438   0.481   0.335   0.384   0.391   0.460   0.351   0.411   0.405   0.442   0.368   0.391   0.345   0.402   0.427   0.381   0.318   0.375   0.356   0.466   0.499   0.339   0.385   0.361   0.425   0.495
   121.00    0.389   0.423   0.316   0.429   0.366   0.397   0.337   0.411   0.374   0.339   0.357   0.420   0.343   0.438   0.458   0.442   0.517   0.306   0.433   0.421   0.419   0.365   0.372   0.376   0.340   0.368   0.356   0.414   0.444   0.393   0.394   0.390   0.459
   116.00    0.330   0.336   0.391   0.442   0.409   0.327   0.333   0.387   0.481   0.318   0.445   0.360   0.401   0.305   0.376   0.485   0.591   0.360   0.467   0.327   0.327   0.374   0.347   0.320   0.461   0.481   0.473   0.349   0.405   0.395   0.352   0.356   0.401
   111.00    0.498   0.378   0.356   0.364   0.379   0.334   0.508   0.591   0.548   0.367   0.471   0.356   0.394   0.357   0.320   0.447   0.491   0.600   0.488   0.511   0.315   0.337   0.475   0.440   0.474   0.448   0.351   0.409   0.334   0.395   0.371   0.353   0.372
   106.00    0.468   0.344   0.384   0.475   0.510   0.526   0.485   0.558   0.404   0.333   0.377   0.412   0.460   0.354   0.389   0.437   0.526   0.649   0.517   0.505   0.476   0.485   0.610   0.659   0.377   0.340   0.355   0.365   0.356   0.398   0.368   0.339   0.317
   101.00    0.387   0.429   0.489   0.464   0.416   0.388   0.491   0.452   0.570   0.463   0.293   0.370   0.478   0.504   0.331   0.382   0.458   0.516   0.534   0.478   0.419   0.478   0.508   0.556   0.559   0.372   0.342   0.364   0.324   0.373   0.404   0.473   0.426
    96.00    0.389   0.327   0.436   0.460   0.443   0.390   0.488   0.504   0.550   0.556   0.553   0.386   0.446   0.492   0.438   0.374   0.410   0.427   0.435   0.353   0.413   0.375   0.394   0.407   0.458   0.408   0.393   0.377   0.337   0.349   0.366   0.520   0.573
    91.00    0.519   0.367   0.336   0.439   0.399   0.394   0.384   0.415   0.496   0.434   0.474   0.431   0.416   0.414   0.451   0.428   0.423   0.408   0.392   0.376   0.362   0.352   0.388   0.353   0.418   0.467   0.382   0.430   0.477   0.354   0.355   0.461   0.517
    86.00    0.458   0.442   0.442   0.387   0.384   0.518   0.573   0.365   0.446   0.393   0.431   0.306   0.420   0.336   0.427   0.355   0.353   0.359   0.383   0.337   0.369   0.421   0.398   0.383   0.368   0.408   0.340   0.401   0.430   0.304   0.369   0.390   0.450
    81.00    0.366   0.389   0.302   0.354   0.427   0.510   0.501   0.295   0.431   0.454   0.415   0.387   0.463   0.290   0.375   0.424   0.356   0.322   0.353   0.386   0.468   0.376   0.437   0.390   0.374   0.429   0.335   0.364   0.294   0.372   0.360   0.415   0.380
    76.00    0.400   0.347   0.428   0.422   0.354   0.370   0.392   0.418   0.328   0.406   0.394   0.414   0.441   0.329   0.335   0.431   0.392   0.387   0.336   0.433   0.383   0.363   0.328   0.341   0.367   0.343   0.367   0.433   0.405   0.345   0.429   0.313   0.385
    71.00    0.538   0.430   0.502   0.453   0.517   0.476   0.368   0.463   0.465   0.314   0.355   0.375   0.450   0.352   0.411   0.362   0.335   0.432   0.405   0.387   0.321   0.471   0.434   0.501   0.344   0.360   0.364   0.360   0.403   0.439   0.469   0.359   0.419
    66.00    0.532   0.532   0.319   0.471   0.545   0.360   0.368   0.349   0.419   0.445   0.370   0.396   0.397   0.411   0.359   0.424   0.436   0.430   0.534   0.527   0.396   0.539   0.443   0.505   0.484   0.337   0.353   0.474   0.414   0.319   0.446   0.557   0.498
    61.00    0.460   0.480   0.494   0.483   0.497   0.411   0.332   0.458   0.417   0.332   0.434   0.493   0.421   0.320   0.392   0.444   0.363   0.454   0.496   0.502   0.385   0.474   0.487   0.508   0.358   0.386   0.449   0.478   0.299   0.382   0.364   0.410   0.481
    56.00    0.526   0.356   0.488   0.583   0.411   0.325   0.340   0.460   0.457   0.376   0.360   0.378   0.446   0.385   0.443   0.425   0.309   0.398   0.379   0.405   0.425   0.454   0.442   0.398   0.435   0.409   0.374   0.382   0.477   0.398   0.374   0.387   0.375
    51.00    0.415   0.506   0.430   0.517   0.487   0.357   0.447   0.435   0.428   0.401   0.342   0.398   0.464   0.469   0.451   0.340   0.377   0.394   0.469   0.347   0.425   0.305   0.417   0.400   0.384   0.329   0.384   0.432   0.414   0.496   0.447   0.387   0.353
    46.00    0.365   0.354   0.444   0.409   0.389   0.406   0.336   0.382   0.381   0.351   0.454   0.473   0.510   0.508   0.363   0.354   0.377   0.486   0.462   0.343   0.373   0.430   0.322   0.374   0.317   0.334   0.403   0.381   0.425   0.514   0.316   0.425   0.405
    41.00    0.429   0.471   0.585   0.621   0.524   0.530   0.452   0.388   0.428   0.352   0.427   0.483   0.532   0.478   0.478   0.437   0.388   0.449   0.443   0.483   0.337   0.362   0.410   0.334   0.465   0.391   0.475   0.373   0.396   0.502   0.384   0.437   0.413
    36.00    0.460   0.406   0.505   0.565   0.426   0.412   0.529   0.515   0.294   0.410   0.466   0.488   0.503   0.343   0.382   0.389   0.385   0.406   0.548   0.630   0.380   0.367   0.386   0.349   0.361   0.506   0.378   0.470   0.324   0.442   0.494   0.398   0.435
    31.00    0.482   0.432   0.423   0.503   0.507   0.376   0.435   0.473   0.334   0.355   0.325   0.453   0.415   0.334   0.330   0.410   0.431   0.458   0.504   0.563   0.549   0.312   0.370   0.327   0.432   0.545   0.472   0.451   0.506   0.417   0.363   0.450   0.427
    26.00    0.481   0.426   0.489   0.537   0.539   0.513   0.332   0.355   0.408   0.399   0.406   0.348   0.348   0.370   0.402   0.434   0.352   0.383   0.439   0.533   0.426   0.463   0.441   0.477   0.456   0.414   0.408   0.365   0.424   0.376   0.442   0.504   0.307
    21.00    0.442   0.372   0.403   0.422   0.419   0.419   0.332   0.339   0.395   0.507   0.316   0.360   0.415   0.373   0.353   0.367   0.339   0.428   0.354   0.524   0.553   0.467   0.364   0.447   0.416   0.469   0.438   0.342   0.433   0.505   0.537   0.407   0.460
    16.00    0.472   0.320   0.381   0.345   0.368   0.367   0.357   0.350   0.426   0.498   0.394   0.416   0.392   0.435   0.456   0.320   0.420   0.407   0.351   0.473   0.511   0.590   0.393   0.320   0.324   0.342   0.376   0.344   0.406   0.416   0.368   0.375   0.433
    11.00    0.476   0.333   0.325   0.334   0.424   0.362   0.456   0.383   0.380   0.414   0.483   0.324   0.393   0.466   0.479   0.324   0.408   0.411   0.379   0.334   0.420   0.454   0.448   0.401   0.400   0.395   0.352   0.397   0.343   0.339   0.392   0.413   0.390
     6.00    0.467   0.501   0.420   0.357   0.390   0.388   0.379   0.330   0.384   0.354   0.427   0.330   0.421   0.383   0.441   0.437   0.343   0.360   0.460   0.417   0.385   0.354   0.319   0.355   0.402   0.326   0.353   0.347   0.386   0.385   0.321   0.393   0.314
     1.00    0.418   0.460   0.364   0.412   0.398   0.418   0.341   0.371   0.401   0.375   0.382   0.362   0.461   0.410   0.474   0.391   0.350   0.348   0.441   0.484   0.385   0.420   0.345   0.437   0.399   0.482   0.358   0.374   0.321   0.385   0.440   0.367   0.374

   Mean standard deviation across all grid points:
      u component:    0.487 m/s
      v component:    0.504 m/s
      w component:    0.411 m/s


U-component (X) statistics from the interpolated hub point:

   Mean =  10.0559 m/s
   TI   =   4.1370 %


Processing complete.  1.6892 CPU seconds used.
