
This summary file was generated by TurbSim (from OpenFAST-v3.4.1-dirty) on 14-Dec-2023 at 13:51:03.


Runtime Options:

   2318573  Random seed #1
    RANLUX  Type of random number generator
         F  Output binary HH turbulence parameters?
         F  Output formatted turbulence parameters?
         F  Output AeroDyn HH files?
         T  Output AeroDyn FF files?
         F  Output BLADED FF files?
         F  Output tower data?
         F  Output HAWC FF files?
         F  Output formatted FF files?
         T  Output coherent turbulence time step file?
 0 -  NONE  IEC turbulence models scaled to exact specified standard deviation


Turbine/Model Specifications:

        35  Vertical grid-point matrix dimension
        33  Horizontal grid-point matrix dimension
     0.300  Time step [seconds]
    10.000  Analysis time [seconds]
    10.000  Usable output time [seconds]
    91.000  Hub height [m]
   170.000  Grid height [m]
   160.000  Grid width [m]
     0.000  Vertical flow angle [degrees]
     0.000  Horizontal flow angle [degrees]


Meteorological Boundary Conditions:

    TIMESR  User-input time series spectral model
       N/A  IEC standard
       N/A  IEC turbulence characteristic
       N/A  IEC turbulence type
       N/A  IEC Extreme Turbulence Model (ETM) "c" parameter [m/s]
       PL   Wind profile type
    88.500  Reference height [m]
    10.000  Reference wind speed [m/s]
       N/A  Jet height [m]
     0.200  Power law exponent
     0.030  Surface roughness length [m]


Non-IEC Meteorological Boundary Conditions:

    45.000  Site latitude [degrees]
     0.050  Gradient Richardson number
     0.481  Friction or shear velocity [m/s]
       N/A  Mixing layer depth [m]
       N/A  Mean hub u'w' Reynolds stress
       N/A  Mean hub u'v' Reynolds stress
       N/A  Mean hub v'w' Reynolds stress


Spatial Coherence Models:

       IEC  u-component coherence model
       IEC  v-component coherence model
       IEC  w-component coherence model
(   12.000, 0.353E-03)  u-component coherence parameters
(   12.000, 0.353E-03)  v-component coherence parameters
(   12.000, 0.353E-03)  w-component coherence parameters
       N/A  Coherence exponent


Coherent Turbulence Scaling Parameters:

.\EventData
            Name of the path containing the coherent turbulence data files
       les  Type of coherent turbulence data files
     1.000  Disturbance scale (ratio of wave height to rotor diameter)
     0.500  Fractional location of tower centerline from right
     0.500  Fractional location of hub height from the bottom of the dataset
    30.000  Minimum start time for coherent structures [seconds]


Profiles from User-Defined Time-Series Input:

  Height   Wind Speed   Horizontal Angle   Vertical Angle
   (m)        (m/s)          (deg)              (deg)    
  ------   ----------   ----------------   --------------
   76.00       9.70           0.00                0.00


You have requested that the following file(s) be generated:

   ./Test/Cond00_v10.0_PL0.2_TI10/Case0_wdirp00/Seed_0/TurbSim/HighT4.bts (AeroDyn/TurbSim full-field wind file)


Turbulence Simulation Scaling Parameter Summary:

   Turbulence model used                            =  User-input time series
   Gradient Richardson number                       =    0.050
   Monin-Obukhov (M-O) z/L parameter                =    0.067
   Monin-Obukhov (M-O) length scale                 = 1365.000 m
   Mean wind speed at hub height                    =   10.056 m/s

   Wind profile type                                =  Power law
   Power law exponent                               =    0.200
   Mean shear across rotor disk                     =    0.030 (m/s)/m
   Assumed rotor diameter                           =  160.000 m
   Surface roughness length                         =    0.030 m

   Nyquist frequency of turbulent wind field        =    1.667 Hz

   Number of time steps in the FFT                  =       34
   Number of time steps output                      =       34
   Number of points simulated                       =     1156


Mean Flow Angles:

   Vertical   =   0.0 degrees
   Horizontal =   0.0 degrees

Mean Wind Speed Profile:

   Height    Wind Speed   Horizontal Angle  Vertical Angle  U-comp (X)   V-comp (Y)   W-comp (Z)
     (m)        (m/s)         (degrees)       (degrees)       (m/s)        (m/s)        (m/s)   
   ------    ----------   ----------------  --------------  ----------   ----------   ----------
    171.0       11.41            0.00            0.00         11.41         0.00         0.00
    166.0       11.34            0.00            0.00         11.34         0.00         0.00
    161.0       11.27            0.00            0.00         11.27         0.00         0.00
    156.0       11.20            0.00            0.00         11.20         0.00         0.00
    151.0       11.13            0.00            0.00         11.13         0.00         0.00
    146.0       11.05            0.00            0.00         11.05         0.00         0.00
    141.0       10.98            0.00            0.00         10.98         0.00         0.00
    136.0       10.90            0.00            0.00         10.90         0.00         0.00
    131.0       10.82            0.00            0.00         10.82         0.00         0.00
    126.0       10.73            0.00            0.00         10.73         0.00         0.00
    121.0       10.65            0.00            0.00         10.65         0.00         0.00
    116.0       10.56            0.00            0.00         10.56         0.00         0.00
    111.0       10.46            0.00            0.00         10.46         0.00         0.00
    106.0       10.37            0.00            0.00         10.37         0.00         0.00
    101.0       10.27            0.00            0.00         10.27         0.00         0.00
     96.0       10.16            0.00            0.00         10.16         0.00         0.00
     91.0       10.06            0.00            0.00         10.06         0.00         0.00
     86.0        9.94            0.00            0.00          9.94         0.00         0.00
     81.0        9.82            0.00            0.00          9.82         0.00         0.00
     76.0        9.70            0.00            0.00          9.70         0.00         0.00
     71.0        9.57            0.00            0.00          9.57         0.00         0.00
     66.0        9.43            0.00            0.00          9.43         0.00         0.00
     61.0        9.28            0.00            0.00          9.28         0.00         0.00
     56.0        9.13            0.00            0.00          9.13         0.00         0.00
     51.0        8.96            0.00            0.00          8.96         0.00         0.00
     46.0        8.77            0.00            0.00          8.77         0.00         0.00
     41.0        8.57            0.00            0.00          8.57         0.00         0.00
     36.0        8.35            0.00            0.00          8.35         0.00         0.00
     31.0        8.11            0.00            0.00          8.11         0.00         0.00
     26.0        7.83            0.00            0.00          7.83         0.00         0.00
     21.0        7.50            0.00            0.00          7.50         0.00         0.00
     16.0        7.10            0.00            0.00          7.10         0.00         0.00
     11.0        6.59            0.00            0.00          6.59         0.00         0.00
      6.0        5.84            0.00            0.00          5.84         0.00         0.00
      1.0        4.08            0.00            0.00          4.08         0.00         0.00


Harvested Random Seeds after Generation of the Random Numbers:

       547700 K 1
            0 K 2


Hub-Height Simulated Turbulence Statistical Summary:

   Type of Wind        Min (m/s)   Mean (m/s)    Max (m/s)  Sigma (m/s)       TI (%)
   ----------------    ---------   ----------    ---------  -----------       ------
   Longitudinal (u)         9.26        10.06        10.93        0.403        4.005
   Lateral (v)             -0.75         0.00         0.86        0.435        4.326
   Vertical (w)            -0.82         0.00         0.94        0.423        4.204
   U component              9.26        10.06        10.93        0.403        4.005
   V component             -0.75         0.00         0.86        0.435        4.326
   W component             -0.82         0.00         0.94        0.423        4.204
   Horizontal (U&V)         9.26        10.07        10.93        0.402        3.996
   Total                    9.26        10.07        10.93        0.403        4.003

                       Min Reynolds     Mean Reynolds    Max Reynolds    Correlation
   Product             Stress (m/s)^2   Stress (m/s)^2   Stress (m/s)^2  Coefficient
   ----------------    --------------   --------------   --------------  -----------
   u'w'                     -0.482            -0.071             0.250        -0.420
   u'v'                     -0.344             0.010             0.280         0.057
   v'w'                     -0.401             0.012             0.319         0.064


   Friction Velocity (Ustar)  =      0.267 m/s
   Maximum Instantaneous TKE  =      0.559 (m/s)^2
   Maximum Instantaneous CTKE =      0.299 (m/s)^2


Grid Point Variance Summary:

   Y-coord  -80.00  -75.00  -70.00  -65.00  -60.00  -55.00  -50.00  -45.00  -40.00  -35.00  -30.00  -25.00  -20.00  -15.00  -10.00   -5.00    0.00    5.00   10.00   15.00   20.00   25.00   30.00   35.00   40.00   45.00   50.00   55.00   60.00   65.00   70.00   75.00   80.00

   Height   Standard deviation at grid points for the u component:
   171.00    0.421   0.571   0.601   0.743   0.691   0.456   0.560   0.400   0.521   0.391   0.519   0.359   0.318   0.453   0.631   0.384   0.399   0.357   0.553   0.421   0.544   0.373   0.416   0.418   0.485   0.699   0.642   0.670   0.409   0.450   0.509   0.458   0.493
   166.00    0.386   0.491   0.319   0.569   0.610   0.359   0.371   0.470   0.468   0.592   0.340   0.633   0.682   0.313   0.509   0.495   0.445   0.375   0.529   0.417   0.550   0.373   0.340   0.495   0.437   0.551   0.438   0.442   0.409   0.369   0.485   0.371   0.447
   161.00    0.424   0.472   0.379   0.408   0.614   0.404   0.435   0.547   0.675   0.648   0.636   0.529   0.479   0.553   0.432   0.434   0.363   0.580   0.511   0.490   0.484   0.414   0.413   0.533   0.718   0.424   0.517   0.301   0.483   0.528   0.622   0.366   0.472
   156.00    0.344   0.612   0.642   0.650   0.590   0.588   0.683   0.407   0.574   0.427   0.483   0.403   0.353   0.463   0.494   0.467   0.456   0.563   0.467   0.428   0.461   0.302   0.573   0.398   0.647   0.537   0.660   0.392   0.422   0.525   0.524   0.357   0.525
   151.00    0.605   0.583   0.485   0.490   0.389   0.447   0.566   0.419   0.603   0.467   0.333   0.367   0.469   0.506   0.294   0.468   0.320   0.343   0.333   0.500   0.430   0.439   0.666   0.587   0.631   0.491   0.583   0.622   0.486   0.577   0.342   0.417   0.476
   146.00    0.517   0.602   0.656   0.651   0.545   0.481   0.481   0.363   0.365   0.511   0.592   0.448   0.502   0.592   0.613   0.384   0.480   0.433   0.521   0.594   0.443   0.614   0.730   0.600   0.664   0.488   0.536   0.620   0.514   0.445   0.574   0.659   0.631
   141.00    0.448   0.438   0.657   0.686   0.412   0.384   0.426   0.445   0.591   0.356   0.465   0.419   0.449   0.667   0.584   0.354   0.362   0.444   0.333   0.433   0.349   0.572   0.584   0.393   0.413   0.657   0.652   0.406   0.574   0.448   0.557   0.591   0.428
   136.00    0.472   0.492   0.625   0.744   0.478   0.435   0.386   0.552   0.640   0.355   0.526   0.768   0.439   0.510   0.453   0.477   0.470   0.450   0.460   0.424   0.572   0.535   0.439   0.532   0.645   0.681   0.479   0.622   0.406   0.380   0.386   0.477   0.541
   131.00    0.497   0.626   0.685   0.625   0.458   0.593   0.475   0.500   0.497   0.442   0.541   0.647   0.629   0.613   0.323   0.555   0.392   0.479   0.349   0.515   0.464   0.549   0.364   0.532   0.752   0.421   0.609   0.684   0.632   0.619   0.599   0.459   0.372
   126.00    0.310   0.384   0.443   0.411   0.545   0.505   0.423   0.399   0.540   0.594   0.697   0.363   0.446   0.401   0.344   0.410   0.414   0.325   0.514   0.548   0.407   0.419   0.422   0.447   0.596   0.716   0.657   0.633   0.494   0.622   0.670   0.570   0.497
   121.00    0.529   0.511   0.430   0.416   0.469   0.355   0.548   0.423   0.556   0.495   0.579   0.577   0.394   0.430   0.404   0.536   0.538   0.676   0.655   0.312   0.423   0.440   0.602   0.406   0.540   0.505   0.562   0.500   0.527   0.514   0.648   0.616   0.416
   116.00    0.404   0.452   0.422   0.435   0.655   0.583   0.534   0.442   0.644   0.384   0.503   0.335   0.375   0.469   0.389   0.446   0.579   0.689   0.681   0.390   0.373   0.481   0.597   0.469   0.359   0.378   0.382   0.425   0.428   0.546   0.602   0.596   0.608
   111.00    0.539   0.444   0.318   0.630   0.699   0.690   0.388   0.400   0.478   0.640   0.356   0.403   0.386   0.462   0.466   0.597   0.673   0.706   0.541   0.442   0.438   0.392   0.508   0.430   0.537   0.431   0.459   0.314   0.581   0.534   0.407   0.513   0.532
   106.00    0.436   0.494   0.655   0.688   0.469   0.510   0.502   0.587   0.522   0.468   0.429   0.379   0.337   0.474   0.639   0.625   0.731   0.634   0.526   0.522   0.552   0.466   0.381   0.393   0.528   0.404   0.343   0.381   0.468   0.520   0.398   0.402   0.387
   101.00    0.380   0.414   0.464   0.672   0.669   0.591   0.331   0.552   0.599   0.426   0.394   0.512   0.431   0.397   0.514   0.663   0.698   0.470   0.399   0.558   0.501   0.548   0.444   0.559   0.488   0.349   0.437   0.544   0.395   0.398   0.357   0.506   0.611
    96.00    0.425   0.384   0.540   0.601   0.609   0.697   0.476   0.423   0.616   0.375   0.462   0.384   0.557   0.569   0.310   0.405   0.473   0.366   0.394   0.438   0.469   0.360   0.494   0.602   0.416   0.370   0.451   0.569   0.326   0.378   0.519   0.463   0.519
    91.00    0.380   0.374   0.382   0.448   0.349   0.576   0.747   0.542   0.578   0.693   0.712   0.555   0.584   0.449   0.502   0.372   0.403   0.471   0.481   0.668   0.328   0.439   0.454   0.420   0.400   0.376   0.395   0.350   0.534   0.491   0.536   0.387   0.404
    86.00    0.408   0.415   0.437   0.360   0.385   0.527   0.647   0.642   0.416   0.512   0.493   0.338   0.502   0.612   0.291   0.454   0.676   0.780   0.555   0.608   0.387   0.555   0.306   0.399   0.410   0.429   0.410   0.547   0.289   0.543   0.557   0.500   0.612
    81.00    0.410   0.472   0.489   0.320   0.435   0.417   0.526   0.747   0.799   0.756   0.589   0.594   0.466   0.492   0.475   0.435   0.507   0.554   0.548   0.720   0.718   0.415   0.562   0.417   0.477   0.342   0.363   0.516   0.526   0.635   0.619   0.418   0.498
    76.00    0.726   0.345   0.486   0.617   0.600   0.500   0.601   0.616   0.608   0.573   0.510   0.384   0.441   0.323   0.454   0.543   0.612   0.402   0.404   0.440   0.603   0.669   0.424   0.448   0.320   0.491   0.436   0.460   0.391   0.532   0.386   0.379   0.435
    71.00    0.727   0.676   0.352   0.428   0.575   0.559   0.624   0.436   0.384   0.452   0.428   0.547   0.551   0.585   0.649   0.715   0.483   0.476   0.388   0.443   0.386   0.568   0.390   0.380   0.367   0.390   0.371   0.491   0.539   0.450   0.476   0.383   0.388
    66.00    0.663   0.709   0.382   0.398   0.442   0.562   0.590   0.649   0.417   0.471   0.400   0.472   0.512   0.598   0.591   0.526   0.512   0.519   0.596   0.511   0.360   0.417   0.508   0.347   0.492   0.573   0.475   0.461   0.526   0.635   0.727   0.620   0.513
    61.00    0.602   0.671   0.565   0.295   0.400   0.414   0.481   0.431   0.442   0.494   0.541   0.602   0.431   0.589   0.428   0.398   0.348   0.507   0.593   0.323   0.567   0.499   0.413   0.437   0.379   0.437   0.362   0.579   0.700   0.428   0.607   0.555   0.347
    56.00    0.638   0.465   0.595   0.698   0.520   0.343   0.493   0.424   0.335   0.461   0.420   0.366   0.451   0.491   0.422   0.567   0.333   0.429   0.463   0.323   0.387   0.490   0.530   0.386   0.479   0.357   0.526   0.588   0.494   0.453   0.575   0.417   0.406
    51.00    0.453   0.479   0.514   0.499   0.385   0.478   0.432   0.425   0.412   0.371   0.366   0.589   0.660   0.346   0.508   0.628   0.589   0.529   0.432   0.569   0.497   0.458   0.426   0.342   0.385   0.345   0.463   0.626   0.345   0.418   0.567   0.390   0.368
    46.00    0.361   0.428   0.409   0.309   0.430   0.445   0.406   0.472   0.496   0.420   0.463   0.460   0.396   0.590   0.705   0.745   0.390   0.512   0.455   0.624   0.537   0.565   0.667   0.316   0.469   0.569   0.575   0.628   0.361   0.573   0.504   0.385   0.555
    41.00    0.662   0.524   0.359   0.652   0.399   0.298   0.346   0.472   0.367   0.438   0.394   0.493   0.612   0.569   0.620   0.632   0.508   0.480   0.573   0.696   0.522   0.566   0.413   0.433   0.389   0.411   0.506   0.695   0.498   0.580   0.498   0.361   0.432
    36.00    0.615   0.544   0.713   0.676   0.741   0.543   0.450   0.454   0.418   0.394   0.546   0.558   0.422   0.501   0.456   0.463   0.453   0.608   0.695   0.606   0.460   0.580   0.574   0.388   0.330   0.454   0.363   0.535   0.539   0.558   0.375   0.619   0.353
    31.00    0.501   0.498   0.541   0.453   0.510   0.542   0.537   0.410   0.588   0.391   0.491   0.472   0.314   0.437   0.427   0.463   0.467   0.524   0.694   0.772   0.427   0.473   0.427   0.408   0.467   0.525   0.665   0.403   0.515   0.473   0.348   0.505   0.685
    26.00    0.435   0.330   0.419   0.434   0.399   0.389   0.595   0.637   0.740   0.727   0.368   0.360   0.441   0.395   0.376   0.368   0.411   0.357   0.524   0.589   0.523   0.387   0.448   0.487   0.452   0.419   0.553   0.323   0.393   0.427   0.478   0.354   0.584
    21.00    0.502   0.435   0.420   0.527   0.376   0.645   0.518   0.698   0.593   0.598   0.537   0.399   0.546   0.394   0.389   0.367   0.486   0.468   0.571   0.600   0.302   0.429   0.351   0.396   0.329   0.406   0.377   0.552   0.321   0.402   0.439   0.349   0.568
    16.00    0.474   0.347   0.392   0.624   0.661   0.557   0.600   0.688   0.353   0.436   0.420   0.491   0.508   0.363   0.303   0.349   0.579   0.342   0.489   0.523   0.405   0.427   0.472   0.611   0.493   0.506   0.287   0.490   0.519   0.377   0.386   0.279   0.504
    11.00    0.385   0.500   0.462   0.600   0.543   0.437   0.460   0.564   0.500   0.342   0.384   0.378   0.475   0.536   0.464   0.574   0.607   0.517   0.591   0.519   0.409   0.412   0.494   0.452   0.324   0.460   0.722   0.434   0.390   0.457   0.575   0.510   0.495
     6.00    0.508   0.494   0.475   0.518   0.437   0.343   0.510   0.574   0.455   0.335   0.443   0.429   0.471   0.445   0.484   0.651   0.648   0.527   0.639   0.648   0.393   0.455   0.390   0.405   0.479   0.686   0.690   0.603   0.574   0.495   0.525   0.484   0.455
     1.00    0.502   0.596   0.548   0.332   0.392   0.534   0.547   0.582   0.455   0.544   0.457   0.437   0.499   0.484   0.493   0.607   0.600   0.437   0.537   0.625   0.677   0.377   0.439   0.436   0.344   0.462   0.592   0.637   0.454   0.519   0.374   0.461   0.512

   Height   Standard deviation at grid points for the v component:
   171.00    0.580   0.690   0.607   0.626   0.364   0.562   0.564   0.599   0.459   0.495   0.538   0.378   0.530   0.438   0.434   0.492   0.439   0.568   0.520   0.574   0.573   0.431   0.414   0.374   0.456   0.537   0.486   0.499   0.519   0.521   0.463   0.385   0.484
   166.00    0.500   0.409   0.629   0.820   0.510   0.673   0.536   0.507   0.418   0.599   0.346   0.555   0.584   0.380   0.395   0.423   0.352   0.559   0.510   0.663   0.559   0.492   0.554   0.504   0.472   0.543   0.407   0.574   0.376   0.402   0.705   0.822   0.564
   161.00    0.397   0.566   0.598   0.667   0.628   0.674   0.495   0.436   0.506   0.493   0.463   0.452   0.462   0.627   0.742   0.745   0.711   0.762   0.712   0.427   0.589   0.475   0.565   0.684   0.319   0.393   0.593   0.561   0.471   0.602   0.628   0.703   0.648
   156.00    0.448   0.504   0.442   0.493   0.433   0.474   0.494   0.392   0.449   0.396   0.597   0.350   0.727   0.615   0.688   0.549   0.709   0.435   0.462   0.620   0.584   0.685   0.751   0.430   0.481   0.442   0.604   0.562   0.792   0.549   0.596   0.600   0.563
   151.00    0.610   0.429   0.460   0.488   0.490   0.586   0.599   0.412   0.506   0.372   0.516   0.618   0.723   0.956   0.856   0.558   0.747   0.464   0.635   0.436   0.644   0.477   0.625   0.693   0.366   0.440   0.575   0.701   0.733   0.798   0.510   0.477   0.440
   146.00    0.465   0.594   0.380   0.399   0.512   0.555   0.569   0.738   0.457   0.488   0.456   0.623   0.804   0.837   0.778   0.638   0.566   0.622   0.628   0.667   0.613   0.498   0.507   0.497   0.563   0.416   0.442   0.449   0.557   0.419   0.641   0.381   0.455
   141.00    0.588   0.519   0.428   0.535   0.347   0.509   0.434   0.523   0.653   0.388   0.330   0.603   0.630   0.803   0.482   0.534   0.510   0.646   0.474   0.766   0.473   0.458   0.411   0.466   0.377   0.476   0.455   0.419   0.363   0.508   0.543   0.434   0.450
   136.00    0.501   0.612   0.342   0.437   0.460   0.416   0.505   0.410   0.505   0.623   0.381   0.634   0.711   0.809   0.440   0.422   0.484   0.424   0.716   0.829   0.544   0.441   0.483   0.539   0.587   0.499   0.357   0.563   0.489   0.366   0.437   0.656   0.740
   131.00    0.399   0.712   0.763   0.409   0.441   0.422   0.608   0.492   0.493   0.449   0.549   0.628   0.513   0.635   0.591   0.368   0.414   0.428   0.535   0.683   0.721   0.390   0.458   0.427   0.434   0.466   0.435   0.599   0.423   0.690   0.604   0.776   0.577
   126.00    0.572   0.679   0.556   0.492   0.406   0.468   0.494   0.727   0.379   0.434   0.540   0.494   0.465   0.416   0.676   0.395   0.531   0.447   0.391   0.418   0.691   0.682   0.614   0.375   0.451   0.385   0.458   0.467   0.414   0.591   0.661   0.639   0.512
   121.00    0.396   0.511   0.537   0.396   0.561   0.355   0.435   0.531   0.567   0.581   0.504   0.469   0.465   0.736   0.589   0.456   0.579   0.412   0.674   0.740   0.666   0.562   0.609   0.441   0.410   0.473   0.424   0.439   0.507   0.531   0.545   0.514   0.551
   116.00    0.618   0.444   0.510   0.364   0.349   0.457   0.586   0.446   0.532   0.415   0.465   0.553   0.710   0.645   0.497   0.545   0.502   0.440   0.526   0.604   0.405   0.489   0.342   0.480   0.560   0.414   0.594   0.434   0.507   0.512   0.398   0.497   0.377
   111.00    0.596   0.428   0.543   0.438   0.518   0.560   0.493   0.400   0.453   0.527   0.651   0.558   0.579   0.531   0.479   0.463   0.586   0.407   0.556   0.420   0.448   0.393   0.515   0.607   0.324   0.518   0.450   0.396   0.394   0.422   0.448   0.578   0.443
   106.00    0.457   0.471   0.525   0.437   0.557   0.613   0.691   0.654   0.409   0.540   0.550   0.451   0.640   0.384   0.537   0.506   0.562   0.636   0.586   0.555   0.555   0.492   0.653   0.435   0.540   0.654   0.448   0.378   0.515   0.493   0.416   0.462   0.477
   101.00    0.545   0.635   0.654   0.519   0.472   0.753   0.595   0.549   0.370   0.555   0.549   0.512   0.513   0.546   0.481   0.453   0.527   0.611   0.375   0.344   0.508   0.709   0.682   0.479   0.369   0.454   0.532   0.429   0.440   0.464   0.608   0.372   0.508
    96.00    0.377   0.373   0.483   0.442   0.574   0.719   0.768   0.700   0.604   0.585   0.485   0.424   0.622   0.477   0.388   0.478   0.602   0.479   0.632   0.810   0.850   0.649   0.464   0.436   0.446   0.506   0.512   0.474   0.477   0.476   0.601   0.653   0.654
    91.00    0.630   0.732   0.683   0.431   0.608   0.449   0.519   0.531   0.550   0.470   0.737   0.597   0.556   0.831   0.739   0.491   0.435   0.577   0.631   0.590   0.719   0.809   0.594   0.435   0.469   0.660   0.552   0.673   0.487   0.489   0.507   0.478   0.395
    86.00    0.551   0.475   0.564   0.380   0.485   0.549   0.575   0.511   0.530   0.659   0.616   0.858   1.027   0.904   0.777   0.579   0.736   0.540   0.433   0.505   0.473   0.672   0.785   0.350   0.488   0.573   0.623   0.606   0.467   0.405   0.503   0.555   0.612
    81.00    0.421   0.472   0.520   0.439   0.393   0.482   0.566   0.758   0.773   0.467   0.665   0.740   0.867   0.861   0.671   0.778   0.629   0.560   0.339   0.502   0.521   0.442   0.686   0.598   0.632   0.394   0.564   0.542   0.518   0.814   0.950   0.618   0.737
    76.00    0.498   0.443   0.548   0.477   0.425   0.432   0.496   0.623   0.563   0.417   0.496   0.555   0.666   0.657   0.608   0.496   0.633   0.528   0.473   0.469   0.602   0.433   0.503   0.619   0.692   0.342   0.475   0.438   0.405   0.652   0.684   0.675   0.787
    71.00    0.735   0.811   0.488   0.571   0.393   0.527   0.436   0.410   0.571   0.582   0.452   0.346   0.460   0.475   0.640   0.461   0.493   0.582   0.606   0.717   0.466   0.505   0.401   0.448   0.506   0.591   0.422   0.633   0.702   0.400   0.507   0.428   0.539
    66.00    0.708   0.771   0.466   0.439   0.434   0.423   0.558   0.406   0.376   0.472   0.525   0.760   0.428   0.515   0.354   0.419   0.423   0.455   0.495   0.423   0.586   0.422   0.504   0.532   0.451   0.563   0.472   0.499   0.580   0.410   0.501   0.344   0.491
    61.00    0.704   0.848   0.583   0.561   0.431   0.603   0.735   0.508   0.486   0.460   0.567   0.611   0.695   0.398   0.487   0.457   0.459   0.438   0.580   0.560   0.452   0.556   0.411   0.570   0.377   0.468   0.696   0.797   0.783   0.888   0.828   0.566   0.341
    56.00    0.586   0.735   0.550   0.596   0.507   0.416   0.669   0.482   0.418   0.529   0.524   0.461   0.541   0.606   0.380   0.406   0.369   0.693   0.456   0.410   0.542   0.569   0.424   0.476   0.392   0.481   0.682   0.893   1.004   0.961   0.632   0.465   0.477
    51.00    0.490   0.554   0.548   0.497   0.385   0.666   0.802   0.443   0.553   0.400   0.449   0.599   0.402   0.624   0.577   0.587   0.568   0.623   0.672   0.623   0.513   0.446   0.447   0.625   0.407   0.511   0.675   0.714   0.771   0.663   0.593   0.463   0.521
    46.00    0.608   0.501   0.495   0.516   0.496   0.556   0.655   0.455   0.637   0.406   0.503   0.365   0.487   0.574   0.567   0.500   0.480   0.454   0.458   0.458   0.539   0.357   0.553   0.485   0.554   0.678   0.467   0.584   0.687   0.336   0.482   0.474   0.461
    41.00    0.522   0.354   0.534   0.340   0.555   0.487   0.484   0.503   0.749   0.584   0.761   0.370   0.453   0.586   0.342   0.464   0.559   0.457   0.544   0.539   0.520   0.444   0.422   0.451   0.480   0.557   0.657   0.722   0.635   0.498   0.494   0.375   0.606
    36.00    0.649   0.757   0.459   0.526   0.601   0.476   0.447   0.529   0.669   0.745   0.785   0.564   0.543   0.420   0.451   0.501   0.429   0.524   0.343   0.483   0.473   0.407   0.400   0.457   0.649   0.414   0.701   0.722   0.542   0.429   0.366   0.417   0.656
    31.00    0.551   0.487   0.590   0.405   0.608   0.409   0.544   0.424   0.523   0.549   0.538   0.696   0.665   0.729   0.477   0.497   0.469   0.515   0.381   0.427   0.480   0.399   0.517   0.585   0.736   0.628   0.824   0.442   0.481   0.393   0.599   0.762   0.510
    26.00    0.527   0.493   0.538   0.421   0.469   0.522   0.602   0.496   0.456   0.433   0.544   0.570   0.529   0.389   0.521   0.511   0.386   0.511   0.472   0.501   0.420   0.496   0.523   0.369   0.464   0.682   0.732   0.689   0.687   0.597   0.606   0.559   0.621
    21.00    0.501   0.405   0.549   0.399   0.462   0.489   0.509   0.452   0.416   0.519   0.466   0.512   0.546   0.485   0.538   0.464   0.541   0.414   0.499   0.424   0.490   0.347   0.518   0.415   0.509   0.465   0.540   0.587   0.580   0.668   0.429   0.413   0.521
    16.00    0.421   0.489   0.539   0.532   0.431   0.457   0.398   0.453   0.572   0.703   0.581   0.483   0.546   0.344   0.344   0.457   0.472   0.652   0.418   0.479   0.428   0.551   0.413   0.494   0.395   0.501   0.364   0.648   0.424   0.618   0.459   0.564   0.401
    11.00    0.444   0.388   0.393   0.603   0.796   0.816   0.716   0.420   0.804   0.738   0.666   0.559   0.573   0.713   0.448   0.699   0.637   0.563   0.416   0.544   0.508   0.452   0.476   0.607   0.370   0.423   0.516   0.688   0.635   0.583   0.647   0.484   0.359
     6.00    0.447   0.571   0.699   0.795   0.790   0.690   0.754   0.776   0.844   0.719   0.589   0.594   0.422   0.515   0.672   0.705   0.517   0.526   0.483   0.497   0.356   0.480   0.566   0.451   0.502   0.473   0.539   0.580   0.495   0.540   0.744   0.714   0.572
     1.00    0.555   0.494   0.606   0.671   0.681   0.487   0.501   0.612   0.476   0.584   0.703   0.413   0.496   0.536   0.474   0.633   0.660   0.695   0.480   0.451   0.584   0.516   0.637   0.374   0.503   0.421   0.512   0.633   0.395   0.513   0.627   0.679   0.744

   Height   Standard deviation at grid points for the w component:
   171.00    0.379   0.380   0.344   0.336   0.387   0.398   0.413   0.352   0.399   0.342   0.384   0.370   0.335   0.322   0.438   0.378   0.534   0.386   0.367   0.351   0.405   0.428   0.375   0.338   0.389   0.431   0.427   0.482   0.445   0.449   0.345   0.357   0.342
   166.00    0.365   0.366   0.413   0.428   0.445   0.509   0.516   0.362   0.476   0.426   0.426   0.332   0.396   0.377   0.379   0.387   0.430   0.426   0.309   0.398   0.373   0.507   0.480   0.387   0.332   0.356   0.398   0.387   0.430   0.426   0.348   0.381   0.371
   161.00    0.468   0.505   0.466   0.387   0.322   0.354   0.365   0.420   0.461   0.461   0.327   0.341   0.407   0.345   0.385   0.339   0.398   0.474   0.418   0.418   0.474   0.510   0.422   0.440   0.435   0.407   0.452   0.458   0.299   0.329   0.378   0.426   0.339
   156.00    0.391   0.454   0.321   0.414   0.459   0.416   0.429   0.340   0.371   0.318   0.375   0.379   0.363   0.354   0.397   0.458   0.436   0.394   0.350   0.422   0.477   0.387   0.373   0.423   0.427   0.428   0.464   0.446   0.417   0.424   0.529   0.361   0.419
   151.00    0.392   0.407   0.343   0.492   0.495   0.334   0.390   0.369   0.368   0.367   0.407   0.342   0.393   0.346   0.411   0.434   0.396   0.363   0.395   0.368   0.339   0.396   0.352   0.397   0.374   0.454   0.501   0.328   0.395   0.415   0.511   0.450   0.439
   146.00    0.526   0.558   0.351   0.508   0.459   0.383   0.385   0.385   0.369   0.364   0.408   0.404   0.412   0.417   0.339   0.440   0.467   0.412   0.355   0.413   0.434   0.334   0.364   0.383   0.379   0.437   0.427   0.389   0.362   0.397   0.448   0.406   0.440
   141.00    0.491   0.555   0.487   0.514   0.491   0.443   0.455   0.358   0.420   0.428   0.354   0.333   0.376   0.368   0.409   0.411   0.374   0.359   0.342   0.439   0.386   0.440   0.338   0.311   0.427   0.427   0.323   0.395   0.372   0.336   0.369   0.373   0.486
   136.00    0.434   0.473   0.464   0.367   0.373   0.385   0.414   0.422   0.374   0.411   0.434   0.374   0.335   0.446   0.403   0.383   0.432   0.458   0.318   0.413   0.385   0.419   0.348   0.385   0.456   0.535   0.447   0.478   0.550   0.468   0.411   0.519   0.469
   131.00    0.439   0.440   0.540   0.410   0.441   0.325   0.340   0.312   0.376   0.379   0.396   0.333   0.345   0.423   0.459   0.443   0.386   0.387   0.452   0.427   0.368   0.316   0.346   0.361   0.412   0.488   0.422   0.407   0.458   0.481   0.466   0.389   0.529
   126.00    0.359   0.455   0.459   0.462   0.451   0.429   0.344   0.437   0.481   0.335   0.383   0.390   0.459   0.351   0.410   0.405   0.442   0.368   0.391   0.344   0.402   0.426   0.380   0.318   0.375   0.355   0.465   0.499   0.339   0.385   0.361   0.425   0.495
   121.00    0.389   0.423   0.316   0.429   0.366   0.397   0.337   0.411   0.374   0.338   0.357   0.420   0.343   0.438   0.458   0.442   0.516   0.306   0.433   0.420   0.419   0.365   0.371   0.376   0.340   0.368   0.356   0.413   0.444   0.393   0.394   0.390   0.459
   116.00    0.329   0.336   0.390   0.441   0.408   0.327   0.333   0.387   0.481   0.318   0.445   0.360   0.401   0.305   0.376   0.485   0.591   0.361   0.468   0.327   0.327   0.374   0.347   0.320   0.461   0.481   0.473   0.349   0.405   0.395   0.352   0.355   0.401
   111.00    0.497   0.378   0.356   0.363   0.379   0.334   0.508   0.591   0.548   0.368   0.471   0.355   0.392   0.357   0.320   0.446   0.493   0.601   0.488   0.513   0.316   0.337   0.475   0.440   0.474   0.448   0.351   0.409   0.334   0.395   0.371   0.353   0.372
   106.00    0.467   0.344   0.384   0.474   0.509   0.525   0.484   0.557   0.403   0.333   0.379   0.410   0.457   0.352   0.390   0.437   0.528   0.651   0.519   0.509   0.478   0.486   0.611   0.660   0.378   0.340   0.355   0.365   0.356   0.398   0.368   0.339   0.317
   101.00    0.387   0.428   0.488   0.463   0.415   0.388   0.491   0.451   0.569   0.464   0.294   0.366   0.470   0.494   0.332   0.387   0.459   0.518   0.539   0.482   0.423   0.480   0.510   0.557   0.559   0.372   0.341   0.364   0.324   0.373   0.404   0.472   0.426
    96.00    0.389   0.327   0.435   0.460   0.442   0.390   0.487   0.504   0.551   0.558   0.556   0.387   0.440   0.476   0.433   0.373   0.403   0.430   0.439   0.347   0.409   0.373   0.396   0.408   0.458   0.407   0.393   0.377   0.337   0.348   0.366   0.519   0.572
    91.00    0.518   0.367   0.336   0.439   0.399   0.393   0.383   0.415   0.499   0.434   0.475   0.426   0.410   0.401   0.428   0.407   0.423   0.415   0.386   0.367   0.350   0.357   0.388   0.351   0.418   0.466   0.381   0.429   0.477   0.354   0.355   0.461   0.517
    86.00    0.458   0.442   0.442   0.387   0.383   0.517   0.572   0.366   0.449   0.393   0.429   0.308   0.405   0.339   0.413   0.385   0.346   0.376   0.416   0.340   0.380   0.430   0.396   0.384   0.369   0.407   0.341   0.401   0.430   0.304   0.369   0.390   0.450
    81.00    0.366   0.389   0.302   0.354   0.427   0.509   0.500   0.295   0.432   0.454   0.428   0.397   0.483   0.285   0.454   0.409   0.392   0.405   0.369   0.431   0.500   0.373   0.436   0.392   0.376   0.430   0.336   0.364   0.293   0.372   0.360   0.415   0.379
    76.00    0.400   0.347   0.428   0.421   0.353   0.370   0.392   0.416   0.328   0.411   0.402   0.435   0.468   0.394   0.382   0.355   0.375   0.335   0.414   0.461   0.399   0.373   0.329   0.339   0.365   0.343   0.368   0.433   0.405   0.345   0.429   0.313   0.385
    71.00    0.538   0.430   0.501   0.453   0.516   0.475   0.367   0.461   0.462   0.313   0.361   0.382   0.433   0.373   0.403   0.366   0.301   0.378   0.332   0.414   0.319   0.481   0.442   0.505   0.344   0.361   0.364   0.360   0.403   0.438   0.469   0.358   0.419
    66.00    0.531   0.532   0.319   0.471   0.544   0.359   0.368   0.349   0.417   0.438   0.366   0.396   0.375   0.374   0.376   0.389   0.415   0.396   0.518   0.541   0.408   0.542   0.449   0.509   0.486   0.338   0.353   0.474   0.414   0.319   0.445   0.556   0.497
    61.00    0.460   0.480   0.493   0.482   0.496   0.410   0.332   0.459   0.417   0.330   0.430   0.485   0.410   0.314   0.402   0.419   0.364   0.438   0.494   0.508   0.381   0.471   0.489   0.511   0.358   0.386   0.449   0.478   0.299   0.382   0.364   0.410   0.480
    56.00    0.526   0.356   0.487   0.582   0.411   0.325   0.340   0.461   0.458   0.376   0.358   0.373   0.439   0.389   0.437   0.414   0.307   0.387   0.375   0.411   0.429   0.454   0.445   0.400   0.436   0.409   0.374   0.382   0.477   0.398   0.374   0.386   0.375
    51.00    0.414   0.505   0.429   0.516   0.486   0.357   0.447   0.435   0.429   0.402   0.342   0.401   0.464   0.468   0.456   0.337   0.375   0.393   0.460   0.348   0.421   0.306   0.419   0.400   0.384   0.328   0.384   0.432   0.414   0.495   0.447   0.387   0.353
    46.00    0.365   0.354   0.444   0.408   0.389   0.406   0.336   0.383   0.381   0.350   0.454   0.471   0.511   0.512   0.364   0.356   0.375   0.479   0.458   0.341   0.371   0.429   0.323   0.375   0.317   0.334   0.403   0.381   0.425   0.513   0.316   0.425   0.404
    41.00    0.429   0.471   0.584   0.620   0.523   0.530   0.451   0.388   0.428   0.353   0.428   0.482   0.532   0.479   0.480   0.437   0.386   0.445   0.440   0.480   0.337   0.362   0.410   0.334   0.465   0.391   0.475   0.373   0.396   0.501   0.384   0.437   0.412
    36.00    0.460   0.405   0.504   0.564   0.426   0.412   0.529   0.514   0.294   0.409   0.466   0.488   0.502   0.344   0.383   0.389   0.385   0.404   0.546   0.629   0.379   0.366   0.386   0.348   0.361   0.506   0.378   0.469   0.324   0.441   0.493   0.398   0.435
    31.00    0.481   0.432   0.422   0.503   0.506   0.375   0.435   0.473   0.334   0.354   0.325   0.452   0.414   0.334   0.331   0.410   0.430   0.457   0.503   0.561   0.548   0.312   0.370   0.327   0.432   0.544   0.472   0.450   0.505   0.417   0.363   0.449   0.426
    26.00    0.481   0.425   0.489   0.536   0.538   0.512   0.332   0.355   0.408   0.398   0.405   0.347   0.347   0.370   0.401   0.434   0.352   0.383   0.439   0.532   0.426   0.462   0.440   0.477   0.455   0.413   0.408   0.365   0.424   0.376   0.442   0.503   0.307
    21.00    0.442   0.371   0.403   0.421   0.419   0.419   0.332   0.339   0.395   0.507   0.316   0.360   0.415   0.373   0.353   0.367   0.339   0.428   0.353   0.523   0.552   0.467   0.363   0.447   0.415   0.469   0.438   0.342   0.433   0.504   0.537   0.407   0.460
    16.00    0.471   0.320   0.381   0.345   0.368   0.366   0.356   0.350   0.426   0.497   0.394   0.416   0.392   0.435   0.456   0.320   0.420   0.407   0.351   0.473   0.510   0.589   0.392   0.320   0.324   0.342   0.376   0.344   0.406   0.415   0.368   0.375   0.433
    11.00    0.475   0.333   0.325   0.334   0.424   0.362   0.456   0.383   0.380   0.414   0.482   0.323   0.393   0.466   0.479   0.324   0.408   0.410   0.379   0.334   0.419   0.454   0.447   0.401   0.400   0.395   0.352   0.397   0.343   0.338   0.392   0.413   0.390
     6.00    0.466   0.500   0.420   0.356   0.389   0.388   0.379   0.330   0.384   0.354   0.427   0.330   0.421   0.383   0.441   0.436   0.343   0.359   0.460   0.417   0.385   0.353   0.319   0.355   0.402   0.326   0.352   0.346   0.386   0.385   0.321   0.392   0.314
     1.00    0.418   0.460   0.364   0.412   0.397   0.418   0.341   0.371   0.401   0.375   0.382   0.361   0.460   0.410   0.474   0.391   0.350   0.348   0.440   0.483   0.385   0.420   0.345   0.436   0.399   0.481   0.358   0.373   0.321   0.384   0.440   0.367   0.374

   Mean standard deviation across all grid points:
      u component:    0.491 m/s
      v component:    0.536 m/s
      w component:    0.411 m/s


U-component (X) statistics from the interpolated hub point:

   Mean =  10.0559 m/s
   TI   =   4.0054 %


Processing complete.  1.6938 CPU seconds used.
