
This summary file was generated by TurbSim (from OpenFAST-v3.4.1-dirty) on 14-Dec-2023 at 13:51:08.


Runtime Options:

   2318573  Random seed #1
    RANLUX  Type of random number generator
         F  Output binary HH turbulence parameters?
         F  Output formatted turbulence parameters?
         F  Output AeroDyn HH files?
         T  Output AeroDyn FF files?
         F  Output BLADED FF files?
         F  Output tower data?
         F  Output HAWC FF files?
         F  Output formatted FF files?
         T  Output coherent turbulence time step file?
 0 -  NONE  IEC turbulence models scaled to exact specified standard deviation


Turbine/Model Specifications:

        35  Vertical grid-point matrix dimension
        33  Horizontal grid-point matrix dimension
     0.300  Time step [seconds]
    10.000  Analysis time [seconds]
    10.000  Usable output time [seconds]
    91.000  Hub height [m]
   170.000  Grid height [m]
   160.000  Grid width [m]
     0.000  Vertical flow angle [degrees]
     0.000  Horizontal flow angle [degrees]


Meteorological Boundary Conditions:

    TIMESR  User-input time series spectral model
       N/A  IEC standard
       N/A  IEC turbulence characteristic
       N/A  IEC turbulence type
       N/A  IEC Extreme Turbulence Model (ETM) "c" parameter [m/s]
       PL   Wind profile type
    88.500  Reference height [m]
    10.000  Reference wind speed [m/s]
       N/A  Jet height [m]
     0.200  Power law exponent
     0.030  Surface roughness length [m]


Non-IEC Meteorological Boundary Conditions:

    45.000  Site latitude [degrees]
     0.050  Gradient Richardson number
     0.481  Friction or shear velocity [m/s]
       N/A  Mixing layer depth [m]
       N/A  Mean hub u'w' Reynolds stress
       N/A  Mean hub u'v' Reynolds stress
       N/A  Mean hub v'w' Reynolds stress


Spatial Coherence Models:

       IEC  u-component coherence model
       IEC  v-component coherence model
       IEC  w-component coherence model
(   12.000, 0.353E-03)  u-component coherence parameters
(   12.000, 0.353E-03)  v-component coherence parameters
(   12.000, 0.353E-03)  w-component coherence parameters
       N/A  Coherence exponent


Coherent Turbulence Scaling Parameters:

.\EventData
            Name of the path containing the coherent turbulence data files
       les  Type of coherent turbulence data files
     1.000  Disturbance scale (ratio of wave height to rotor diameter)
     0.500  Fractional location of tower centerline from right
     0.500  Fractional location of hub height from the bottom of the dataset
    30.000  Minimum start time for coherent structures [seconds]


Profiles from User-Defined Time-Series Input:

  Height   Wind Speed   Horizontal Angle   Vertical Angle
   (m)        (m/s)          (deg)              (deg)    
  ------   ----------   ----------------   --------------
   76.00       9.70          -0.00                0.00


You have requested that the following file(s) be generated:

   ./Test/Cond00_v10.0_PL0.2_TI10/Case0_wdirp00/Seed_0/TurbSim/HighT7.bts (AeroDyn/TurbSim full-field wind file)


Turbulence Simulation Scaling Parameter Summary:

   Turbulence model used                            =  User-input time series
   Gradient Richardson number                       =    0.050
   Monin-Obukhov (M-O) z/L parameter                =    0.067
   Monin-Obukhov (M-O) length scale                 = 1365.000 m
   Mean wind speed at hub height                    =   10.056 m/s

   Wind profile type                                =  Power law
   Power law exponent                               =    0.200
   Mean shear across rotor disk                     =    0.030 (m/s)/m
   Assumed rotor diameter                           =  160.000 m
   Surface roughness length                         =    0.030 m

   Nyquist frequency of turbulent wind field        =    1.667 Hz

   Number of time steps in the FFT                  =       34
   Number of time steps output                      =       34
   Number of points simulated                       =     1156


Mean Flow Angles:

   Vertical   =   0.0 degrees
   Horizontal =   0.0 degrees

Mean Wind Speed Profile:

   Height    Wind Speed   Horizontal Angle  Vertical Angle  U-comp (X)   V-comp (Y)   W-comp (Z)
     (m)        (m/s)         (degrees)       (degrees)       (m/s)        (m/s)        (m/s)   
   ------    ----------   ----------------  --------------  ----------   ----------   ----------
    171.0       11.41            0.00            0.00         11.41         0.00         0.00
    166.0       11.34            0.00            0.00         11.34         0.00         0.00
    161.0       11.27            0.00            0.00         11.27         0.00         0.00
    156.0       11.20            0.00            0.00         11.20         0.00         0.00
    151.0       11.13            0.00            0.00         11.13         0.00         0.00
    146.0       11.05            0.00            0.00         11.05         0.00         0.00
    141.0       10.98            0.00            0.00         10.98         0.00         0.00
    136.0       10.90            0.00            0.00         10.90         0.00         0.00
    131.0       10.82            0.00            0.00         10.82         0.00         0.00
    126.0       10.73            0.00            0.00         10.73         0.00         0.00
    121.0       10.65            0.00            0.00         10.65         0.00         0.00
    116.0       10.56            0.00            0.00         10.56         0.00         0.00
    111.0       10.46            0.00            0.00         10.46         0.00         0.00
    106.0       10.37            0.00            0.00         10.37         0.00         0.00
    101.0       10.27            0.00            0.00         10.27         0.00         0.00
     96.0       10.16            0.00            0.00         10.16         0.00         0.00
     91.0       10.06            0.00            0.00         10.06         0.00         0.00
     86.0        9.94            0.00            0.00          9.94         0.00         0.00
     81.0        9.82            0.00            0.00          9.82         0.00         0.00
     76.0        9.70            0.00            0.00          9.70         0.00         0.00
     71.0        9.57            0.00            0.00          9.57         0.00         0.00
     66.0        9.43            0.00            0.00          9.43         0.00         0.00
     61.0        9.28            0.00            0.00          9.28         0.00         0.00
     56.0        9.13            0.00            0.00          9.13         0.00         0.00
     51.0        8.96            0.00            0.00          8.96         0.00         0.00
     46.0        8.77            0.00            0.00          8.77         0.00         0.00
     41.0        8.57            0.00            0.00          8.57         0.00         0.00
     36.0        8.35            0.00            0.00          8.35         0.00         0.00
     31.0        8.11            0.00            0.00          8.11         0.00         0.00
     26.0        7.83            0.00            0.00          7.83         0.00         0.00
     21.0        7.50            0.00            0.00          7.50         0.00         0.00
     16.0        7.10            0.00            0.00          7.10         0.00         0.00
     11.0        6.59            0.00            0.00          6.59         0.00         0.00
      6.0        5.84            0.00            0.00          5.84         0.00         0.00
      1.0        4.08            0.00            0.00          4.08         0.00         0.00


Harvested Random Seeds after Generation of the Random Numbers:

       547700 K 1
            0 K 2


Hub-Height Simulated Turbulence Statistical Summary:

   Type of Wind        Min (m/s)   Mean (m/s)    Max (m/s)  Sigma (m/s)       TI (%)
   ----------------    ---------   ----------    ---------  -----------       ------
   Longitudinal (u)         9.32        10.06        11.03        0.419        4.170
   Lateral (v)             -0.67         0.00         0.86        0.429        4.271
   Vertical (w)            -0.83         0.00         1.02        0.461        4.587
   U component              9.32        10.06        11.03        0.419        4.170
   V component             -0.67         0.00         0.86        0.429        4.271
   W component             -0.83         0.00         1.02        0.461        4.587
   Horizontal (U&V)         9.32        10.07        11.03        0.419        4.167
   Total                    9.32        10.08        11.03        0.420        4.172

                       Min Reynolds     Mean Reynolds    Max Reynolds    Correlation
   Product             Stress (m/s)^2   Stress (m/s)^2   Stress (m/s)^2  Coefficient
   ----------------    --------------   --------------   --------------  -----------
   u'w'                     -0.587            -0.085             0.224        -0.439
   u'v'                     -0.516             0.008             0.302         0.045
   v'w'                     -0.450             0.007             0.331         0.037


   Friction Velocity (Ustar)  =      0.291 m/s
   Maximum Instantaneous TKE  =      0.730 (m/s)^2
   Maximum Instantaneous CTKE =      0.399 (m/s)^2


Grid Point Variance Summary:

   Y-coord  -80.00  -75.00  -70.00  -65.00  -60.00  -55.00  -50.00  -45.00  -40.00  -35.00  -30.00  -25.00  -20.00  -15.00  -10.00   -5.00    0.00    5.00   10.00   15.00   20.00   25.00   30.00   35.00   40.00   45.00   50.00   55.00   60.00   65.00   70.00   75.00   80.00

   Height   Standard deviation at grid points for the u component:
   171.00    0.401   0.532   0.560   0.696   0.639   0.432   0.525   0.398   0.496   0.392   0.489   0.356   0.317   0.429   0.590   0.372   0.387   0.353   0.527   0.408   0.507   0.362   0.396   0.402   0.463   0.654   0.600   0.619   0.402   0.428   0.479   0.448   0.478
   166.00    0.383   0.469   0.316   0.537   0.575   0.358   0.366   0.447   0.449   0.561   0.330   0.591   0.628   0.308   0.483   0.472   0.430   0.361   0.504   0.406   0.516   0.370   0.336   0.471   0.420   0.517   0.416   0.425   0.395   0.363   0.458   0.369   0.431
   161.00    0.404   0.456   0.378   0.387   0.574   0.388   0.416   0.509   0.622   0.600   0.588   0.494   0.456   0.521   0.425   0.415   0.354   0.548   0.493   0.469   0.456   0.398   0.400   0.496   0.664   0.407   0.488   0.298   0.456   0.493   0.582   0.361   0.448
   156.00    0.345   0.573   0.594   0.601   0.554   0.546   0.637   0.403   0.536   0.410   0.465   0.395   0.340   0.446   0.473   0.454   0.448   0.535   0.456   0.416   0.440   0.298   0.536   0.386   0.607   0.498   0.613   0.386   0.408   0.489   0.497   0.345   0.494
   151.00    0.566   0.541   0.456   0.467   0.390   0.423   0.531   0.406   0.562   0.447   0.330   0.364   0.456   0.489   0.292   0.441   0.315   0.342   0.330   0.474   0.416   0.424   0.618   0.551   0.583   0.469   0.552   0.573   0.460   0.542   0.332   0.402   0.458
   146.00    0.484   0.563   0.604   0.603   0.511   0.462   0.455   0.353   0.352   0.479   0.553   0.425   0.480   0.550   0.568   0.376   0.462   0.411   0.488   0.557   0.434   0.569   0.672   0.557   0.616   0.465   0.511   0.580   0.487   0.421   0.542   0.621   0.596
   141.00    0.430   0.425   0.610   0.634   0.406   0.381   0.413   0.437   0.560   0.351   0.444   0.403   0.426   0.617   0.544   0.352   0.351   0.423   0.331   0.410   0.344   0.541   0.543   0.383   0.396   0.609   0.603   0.391   0.535   0.426   0.525   0.553   0.414
   136.00    0.447   0.466   0.578   0.687   0.462   0.412   0.379   0.516   0.596   0.351   0.496   0.708   0.423   0.478   0.429   0.460   0.459   0.426   0.438   0.407   0.531   0.505   0.431   0.505   0.596   0.628   0.453   0.583   0.393   0.376   0.373   0.447   0.508
   131.00    0.475   0.591   0.639   0.587   0.441   0.562   0.442   0.478   0.482   0.420   0.508   0.603   0.583   0.572   0.317   0.519   0.385   0.453   0.347   0.482   0.439   0.516   0.364   0.498   0.691   0.403   0.574   0.636   0.587   0.579   0.560   0.436   0.370
   126.00    0.309   0.376   0.428   0.401   0.519   0.487   0.404   0.391   0.512   0.550   0.643   0.350   0.427   0.389   0.341   0.391   0.395   0.322   0.487   0.517   0.393   0.403   0.400   0.423   0.555   0.662   0.611   0.590   0.474   0.576   0.619   0.533   0.470
   121.00    0.499   0.477   0.407   0.407   0.452   0.352   0.521   0.413   0.519   0.467   0.541   0.542   0.393   0.412   0.380   0.511   0.518   0.628   0.612   0.304   0.404   0.421   0.564   0.406   0.514   0.473   0.529   0.472   0.498   0.483   0.607   0.569   0.399
   116.00    0.386   0.434   0.415   0.428   0.615   0.538   0.502   0.425   0.598   0.374   0.477   0.332   0.364   0.448   0.387   0.440   0.550   0.649   0.630   0.387   0.356   0.456   0.556   0.448   0.351   0.365   0.371   0.406   0.406   0.517   0.576   0.552   0.571
   111.00    0.508   0.435   0.314   0.586   0.649   0.641   0.379   0.391   0.452   0.591   0.355   0.388   0.377   0.441   0.452   0.568   0.627   0.659   0.513   0.421   0.425   0.374   0.485   0.407   0.503   0.414   0.431   0.309   0.546   0.507   0.406   0.500   0.513
   106.00    0.424   0.462   0.605   0.641   0.441   0.487   0.471   0.546   0.489   0.445   0.413   0.375   0.326   0.457   0.607   0.592   0.685   0.601   0.505   0.491   0.522   0.447   0.370   0.389   0.508   0.398   0.337   0.373   0.454   0.501   0.389   0.395   0.384
   101.00    0.372   0.393   0.442   0.628   0.616   0.554   0.330   0.513   0.564   0.403   0.371   0.469   0.429   0.399   0.510   0.642   0.670   0.463   0.375   0.525   0.475   0.521   0.421   0.520   0.467   0.342   0.424   0.508   0.386   0.388   0.347   0.476   0.568
    96.00    0.415   0.366   0.512   0.570   0.570   0.647   0.456   0.404   0.574   0.370   0.435   0.376   0.543   0.519   0.319   0.427   0.473   0.375   0.359   0.416   0.444   0.356   0.466   0.560   0.403   0.366   0.434   0.531   0.326   0.366   0.484   0.440   0.488
    91.00    0.376   0.363   0.374   0.426   0.347   0.539   0.697   0.516   0.542   0.651   0.673   0.515   0.573   0.410   0.417   0.380   0.419   0.426   0.452   0.611   0.328   0.410   0.426   0.403   0.389   0.366   0.383   0.339   0.503   0.468   0.506   0.377   0.398
    86.00    0.391   0.396   0.417   0.354   0.381   0.495   0.602   0.606   0.406   0.495   0.487   0.346   0.497   0.596   0.262   0.417   0.594   0.671   0.483   0.551   0.376   0.515   0.307   0.384   0.396   0.415   0.395   0.522   0.286   0.509   0.524   0.471   0.565
    81.00    0.406   0.450   0.471   0.314   0.413   0.400   0.493   0.697   0.751   0.721   0.581   0.620   0.547   0.643   0.683   0.336   0.466   0.492   0.463   0.631   0.642   0.394   0.527   0.415   0.448   0.342   0.352   0.494   0.493   0.597   0.578   0.404   0.470
    76.00    0.673   0.342   0.464   0.583   0.560   0.473   0.574   0.576   0.579   0.557   0.488   0.410   0.390   0.464   0.578   0.378   0.426   0.465   0.372   0.391   0.540   0.610   0.405   0.431   0.312   0.462   0.419   0.443   0.386   0.513   0.375   0.365   0.417
    71.00    0.672   0.628   0.350   0.413   0.536   0.526   0.587   0.431   0.372   0.445   0.418   0.463   0.497   0.586   0.440   0.472   0.330   0.547   0.410   0.444   0.368   0.522   0.373   0.371   0.362   0.374   0.366   0.477   0.524   0.450   0.461   0.370   0.379
    66.00    0.611   0.653   0.377   0.381   0.420   0.525   0.552   0.607   0.406   0.459   0.379   0.411   0.420   0.525   0.439   0.436   0.546   0.562   0.605   0.509   0.357   0.395   0.477   0.348   0.463   0.535   0.455   0.455   0.512   0.598   0.676   0.573   0.484
    61.00    0.562   0.628   0.538   0.293   0.396   0.399   0.471   0.411   0.423   0.450   0.511   0.536   0.429   0.536   0.381   0.441   0.382   0.522   0.583   0.311   0.532   0.473   0.406   0.427   0.362   0.422   0.354   0.547   0.655   0.415   0.575   0.520   0.341
    56.00    0.597   0.445   0.553   0.645   0.494   0.334   0.472   0.416   0.329   0.443   0.403   0.353   0.423   0.442   0.444   0.524   0.327   0.432   0.451   0.308   0.372   0.462   0.500   0.380   0.458   0.355   0.495   0.549   0.465   0.437   0.545   0.402   0.395
    51.00    0.436   0.460   0.481   0.472   0.375   0.462   0.422   0.417   0.395   0.354   0.364   0.572   0.635   0.348   0.505   0.593   0.539   0.495   0.419   0.538   0.478   0.441   0.421   0.338   0.374   0.340   0.436   0.581   0.346   0.395   0.533   0.376   0.359
    46.00    0.359   0.407   0.400   0.307   0.411   0.424   0.393   0.459   0.470   0.412   0.443   0.447   0.392   0.552   0.663   0.695   0.373   0.493   0.437   0.587   0.503   0.529   0.623   0.313   0.445   0.533   0.542   0.590   0.359   0.545   0.478   0.372   0.517
    41.00    0.614   0.497   0.353   0.602   0.389   0.296   0.340   0.450   0.364   0.431   0.388   0.461   0.564   0.535   0.583   0.591   0.485   0.458   0.541   0.650   0.499   0.530   0.393   0.413   0.383   0.393   0.479   0.644   0.464   0.543   0.476   0.353   0.408
    36.00    0.572   0.507   0.660   0.625   0.683   0.516   0.440   0.430   0.404   0.387   0.518   0.528   0.409   0.474   0.433   0.443   0.431   0.579   0.644   0.569   0.448   0.555   0.545   0.377   0.329   0.433   0.361   0.508   0.514   0.517   0.370   0.575   0.343
    31.00    0.476   0.474   0.511   0.436   0.477   0.515   0.516   0.397   0.552   0.375   0.465   0.450   0.309   0.418   0.411   0.439   0.451   0.498   0.646   0.717   0.412   0.458   0.416   0.393   0.446   0.491   0.620   0.384   0.488   0.454   0.347   0.478   0.633
    26.00    0.422   0.326   0.410   0.416   0.382   0.385   0.566   0.605   0.682   0.668   0.359   0.353   0.423   0.383   0.370   0.353   0.400   0.344   0.494   0.549   0.492   0.378   0.426   0.468   0.441   0.411   0.524   0.316   0.381   0.409   0.452   0.345   0.546
    21.00    0.473   0.420   0.401   0.497   0.368   0.606   0.500   0.653   0.557   0.559   0.504   0.379   0.511   0.387   0.378   0.353   0.460   0.447   0.532   0.558   0.299   0.412   0.348   0.383   0.326   0.393   0.365   0.515   0.319   0.391   0.425   0.341   0.540
    16.00    0.460   0.338   0.388   0.589   0.610   0.525   0.566   0.636   0.341   0.422   0.403   0.472   0.473   0.353   0.301   0.347   0.549   0.329   0.462   0.491   0.395   0.417   0.441   0.565   0.467   0.479   0.287   0.466   0.498   0.370   0.377   0.278   0.474
    11.00    0.382   0.481   0.447   0.562   0.507   0.416   0.436   0.534   0.472   0.337   0.371   0.372   0.454   0.513   0.453   0.543   0.572   0.494   0.551   0.489   0.404   0.393   0.473   0.440   0.317   0.433   0.671   0.420   0.390   0.441   0.535   0.485   0.471
     6.00    0.486   0.470   0.458   0.488   0.425   0.343   0.481   0.545   0.428   0.333   0.424   0.416   0.445   0.431   0.469   0.613   0.606   0.492   0.592   0.604   0.392   0.430   0.388   0.397   0.454   0.641   0.646   0.565   0.534   0.467   0.499   0.463   0.438
     1.00    0.476   0.554   0.514   0.328   0.378   0.499   0.514   0.547   0.440   0.511   0.441   0.415   0.475   0.458   0.469   0.570   0.559   0.424   0.501   0.580   0.631   0.377   0.420   0.414   0.336   0.438   0.555   0.595   0.442   0.491   0.365   0.437   0.480

   Height   Standard deviation at grid points for the v component:
   171.00    0.550   0.651   0.569   0.592   0.362   0.530   0.534   0.573   0.443   0.479   0.513   0.377   0.500   0.425   0.424   0.477   0.425   0.540   0.493   0.545   0.536   0.425   0.406   0.368   0.444   0.512   0.479   0.487   0.503   0.500   0.452   0.383   0.464
   166.00    0.481   0.401   0.595   0.760   0.494   0.634   0.510   0.491   0.413   0.571   0.345   0.529   0.548   0.373   0.393   0.422   0.351   0.533   0.492   0.627   0.537   0.480   0.523   0.479   0.453   0.513   0.401   0.548   0.372   0.393   0.664   0.764   0.533
   161.00    0.384   0.540   0.568   0.624   0.592   0.631   0.474   0.426   0.490   0.475   0.448   0.438   0.448   0.594   0.695   0.698   0.671   0.710   0.662   0.416   0.558   0.453   0.530   0.644   0.318   0.384   0.561   0.538   0.463   0.564   0.589   0.659   0.609
   156.00    0.442   0.486   0.431   0.472   0.425   0.455   0.470   0.383   0.433   0.388   0.570   0.344   0.678   0.579   0.643   0.517   0.662   0.419   0.445   0.588   0.551   0.647   0.705   0.426   0.466   0.430   0.565   0.534   0.736   0.519   0.561   0.569   0.534
   151.00    0.582   0.423   0.445   0.474   0.481   0.563   0.574   0.405   0.487   0.368   0.490   0.587   0.672   0.883   0.792   0.527   0.699   0.456   0.596   0.420   0.604   0.462   0.590   0.646   0.365   0.422   0.544   0.661   0.682   0.746   0.483   0.459   0.428
   146.00    0.455   0.564   0.378   0.389   0.494   0.527   0.547   0.696   0.451   0.466   0.441   0.586   0.746   0.777   0.725   0.599   0.536   0.587   0.591   0.626   0.576   0.474   0.484   0.476   0.533   0.412   0.434   0.436   0.523   0.410   0.606   0.378   0.440
   141.00    0.563   0.490   0.421   0.508   0.341   0.484   0.422   0.498   0.614   0.386   0.326   0.567   0.592   0.745   0.464   0.510   0.482   0.605   0.452   0.714   0.460   0.449   0.402   0.456   0.366   0.462   0.438   0.405   0.357   0.488   0.520   0.418   0.438
   136.00    0.484   0.576   0.338   0.427   0.447   0.410   0.478   0.407   0.479   0.590   0.370   0.592   0.665   0.751   0.429   0.413   0.468   0.411   0.672   0.767   0.515   0.423   0.467   0.508   0.558   0.480   0.356   0.532   0.466   0.363   0.423   0.612   0.689
   131.00    0.393   0.669   0.709   0.404   0.430   0.407   0.572   0.471   0.477   0.442   0.530   0.605   0.487   0.592   0.558   0.365   0.403   0.412   0.509   0.645   0.675   0.387   0.447   0.416   0.421   0.456   0.416   0.566   0.420   0.652   0.566   0.721   0.547
   126.00    0.545   0.637   0.523   0.472   0.401   0.454   0.471   0.679   0.375   0.429   0.514   0.481   0.458   0.405   0.631   0.390   0.514   0.438   0.389   0.410   0.652   0.637   0.575   0.372   0.432   0.374   0.448   0.447   0.409   0.557   0.619   0.604   0.483
   121.00    0.393   0.486   0.511   0.388   0.531   0.350   0.424   0.506   0.541   0.558   0.478   0.450   0.446   0.687   0.553   0.434   0.554   0.398   0.633   0.691   0.629   0.533   0.576   0.432   0.402   0.456   0.414   0.430   0.490   0.505   0.525   0.503   0.536
   116.00    0.583   0.432   0.488   0.359   0.344   0.441   0.553   0.435   0.504   0.409   0.450   0.527   0.660   0.607   0.471   0.523   0.488   0.430   0.500   0.570   0.397   0.474   0.341   0.460   0.533   0.398   0.562   0.429   0.490   0.484   0.388   0.477   0.372
   111.00    0.565   0.412   0.520   0.421   0.498   0.538   0.470   0.396   0.442   0.508   0.611   0.532   0.552   0.504   0.469   0.450   0.557   0.401   0.531   0.410   0.433   0.390   0.490   0.575   0.324   0.500   0.440   0.393   0.383   0.417   0.430   0.547   0.432
   106.00    0.446   0.468   0.511   0.432   0.531   0.580   0.645   0.616   0.406   0.508   0.515   0.441   0.607   0.384   0.529   0.491   0.524   0.587   0.550   0.532   0.537   0.475   0.613   0.423   0.515   0.616   0.445   0.366   0.500   0.478   0.405   0.451   0.459
   101.00    0.521   0.600   0.613   0.493   0.451   0.703   0.565   0.521   0.368   0.520   0.522   0.491   0.497   0.544   0.469   0.456   0.487   0.555   0.359   0.340   0.488   0.664   0.635   0.464   0.357   0.444   0.515   0.415   0.429   0.454   0.582   0.370   0.487
    96.00    0.375   0.371   0.470   0.422   0.548   0.672   0.713   0.653   0.564   0.541   0.470   0.422   0.594   0.455   0.394   0.432   0.534   0.471   0.585   0.745   0.778   0.606   0.454   0.420   0.434   0.481   0.492   0.465   0.465   0.470   0.578   0.620   0.618
    91.00    0.590   0.682   0.639   0.426   0.582   0.431   0.487   0.509   0.516   0.447   0.671   0.550   0.525   0.709   0.617   0.442   0.429   0.517   0.569   0.553   0.659   0.742   0.558   0.424   0.455   0.624   0.520   0.634   0.472   0.479   0.498   0.458   0.392
    86.00    0.528   0.461   0.534   0.374   0.471   0.523   0.546   0.497   0.501   0.602   0.552   0.761   0.893   0.699   0.572   0.482   0.611   0.464   0.426   0.476   0.441   0.620   0.730   0.344   0.463   0.540   0.594   0.576   0.444   0.395   0.485   0.537   0.582
    81.00    0.415   0.455   0.498   0.421   0.386   0.469   0.531   0.703   0.715   0.439   0.590   0.660   0.732   0.620   0.415   0.506   0.589   0.481   0.358   0.453   0.489   0.423   0.635   0.560   0.594   0.389   0.540   0.521   0.495   0.757   0.878   0.591   0.695
    76.00    0.480   0.428   0.529   0.466   0.415   0.425   0.474   0.580   0.534   0.394   0.446   0.510   0.548   0.408   0.557   0.370   0.502   0.505   0.445   0.449   0.564   0.426   0.483   0.576   0.643   0.339   0.456   0.437   0.389   0.614   0.641   0.631   0.735
    71.00    0.685   0.757   0.475   0.553   0.387   0.502   0.426   0.401   0.541   0.537   0.457   0.366   0.400   0.410   0.467   0.577   0.382   0.460   0.549   0.646   0.443   0.496   0.396   0.434   0.489   0.558   0.419   0.604   0.663   0.393   0.489   0.414   0.512
    66.00    0.664   0.716   0.450   0.435   0.425   0.408   0.535   0.397   0.368   0.435   0.502   0.712   0.460   0.443   0.403   0.527   0.437   0.406   0.496   0.389   0.542   0.418   0.482   0.505   0.440   0.535   0.462   0.476   0.551   0.399   0.477   0.342   0.474
    61.00    0.656   0.786   0.550   0.534   0.416   0.569   0.694   0.497   0.473   0.445   0.524   0.577   0.684   0.392   0.418   0.400   0.452   0.448   0.584   0.542   0.422   0.526   0.406   0.542   0.373   0.461   0.654   0.743   0.725   0.820   0.766   0.536   0.339
    56.00    0.553   0.683   0.530   0.568   0.488   0.410   0.632   0.473   0.407   0.516   0.497   0.464   0.541   0.612   0.377   0.373   0.380   0.661   0.454   0.406   0.518   0.542   0.409   0.457   0.385   0.466   0.638   0.828   0.931   0.889   0.595   0.447   0.459
    51.00    0.466   0.526   0.527   0.480   0.377   0.630   0.752   0.440   0.526   0.392   0.442   0.570   0.393   0.599   0.548   0.573   0.537   0.583   0.643   0.598   0.492   0.437   0.433   0.590   0.400   0.492   0.628   0.671   0.716   0.619   0.558   0.445   0.497
    46.00    0.576   0.485   0.473   0.488   0.475   0.534   0.616   0.441   0.602   0.402   0.485   0.360   0.467   0.552   0.552   0.490   0.468   0.453   0.447   0.451   0.514   0.353   0.529   0.468   0.532   0.642   0.448   0.552   0.644   0.336   0.464   0.452   0.445
    41.00    0.504   0.352   0.511   0.339   0.531   0.476   0.470   0.480   0.705   0.553   0.714   0.365   0.443   0.563   0.339   0.453   0.540   0.443   0.518   0.503   0.500   0.426   0.411   0.432   0.457   0.533   0.622   0.672   0.605   0.489   0.474   0.368   0.573
    36.00    0.615   0.711   0.445   0.503   0.565   0.465   0.437   0.510   0.626   0.699   0.737   0.534   0.522   0.405   0.444   0.488   0.419   0.502   0.341   0.463   0.460   0.394   0.397   0.449   0.611   0.405   0.657   0.676   0.514   0.424   0.361   0.403   0.615
    31.00    0.520   0.466   0.558   0.401   0.582   0.405   0.519   0.415   0.498   0.525   0.511   0.654   0.631   0.690   0.472   0.476   0.451   0.489   0.378   0.417   0.468   0.390   0.498   0.563   0.692   0.592   0.770   0.434   0.469   0.389   0.565   0.715   0.484
    26.00    0.507   0.486   0.514   0.408   0.453   0.498   0.566   0.476   0.438   0.418   0.521   0.551   0.502   0.387   0.498   0.490   0.378   0.493   0.450   0.477   0.411   0.482   0.501   0.368   0.450   0.645   0.684   0.641   0.644   0.566   0.577   0.531   0.587
    21.00    0.479   0.398   0.526   0.397   0.447   0.467   0.488   0.437   0.409   0.503   0.462   0.501   0.527   0.466   0.515   0.449   0.517   0.409   0.480   0.409   0.470   0.346   0.496   0.403   0.487   0.454   0.518   0.556   0.547   0.626   0.426   0.398   0.498
    16.00    0.407   0.469   0.516   0.509   0.428   0.435   0.395   0.448   0.540   0.661   0.553   0.473   0.521   0.341   0.341   0.448   0.447   0.609   0.406   0.470   0.415   0.531   0.398   0.468   0.388   0.485   0.363   0.605   0.416   0.588   0.443   0.537   0.396
    11.00    0.429   0.380   0.390   0.569   0.744   0.762   0.670   0.404   0.748   0.690   0.622   0.533   0.543   0.664   0.434   0.655   0.601   0.536   0.414   0.522   0.492   0.450   0.459   0.571   0.370   0.414   0.489   0.642   0.601   0.555   0.605   0.464   0.354
     6.00    0.442   0.549   0.658   0.741   0.736   0.646   0.702   0.719   0.786   0.673   0.553   0.564   0.418   0.487   0.632   0.656   0.493   0.499   0.468   0.474   0.355   0.469   0.534   0.438   0.477   0.457   0.513   0.549   0.482   0.514   0.693   0.669   0.541
     1.00    0.529   0.478   0.574   0.626   0.639   0.467   0.485   0.582   0.457   0.552   0.661   0.411   0.473   0.515   0.457   0.597   0.624   0.652   0.461   0.435   0.551   0.493   0.599   0.373   0.484   0.410   0.492   0.594   0.391   0.492   0.587   0.633   0.692

   Height   Standard deviation at grid points for the w component:
   171.00    0.389   0.396   0.343   0.338   0.389   0.404   0.434   0.352   0.414   0.348   0.392   0.378   0.346   0.323   0.457   0.385   0.563   0.397   0.373   0.360   0.412   0.437   0.380   0.342   0.398   0.442   0.434   0.499   0.469   0.474   0.348   0.357   0.347
   166.00    0.367   0.366   0.430   0.450   0.470   0.538   0.552   0.367   0.507   0.435   0.437   0.339   0.408   0.386   0.396   0.402   0.456   0.446   0.312   0.415   0.374   0.534   0.506   0.386   0.345   0.358   0.399   0.391   0.445   0.441   0.359   0.397   0.385
   161.00    0.488   0.532   0.496   0.399   0.328   0.363   0.376   0.435   0.488   0.484   0.330   0.344   0.419   0.357   0.388   0.348   0.407   0.490   0.442   0.432   0.495   0.540   0.445   0.456   0.452   0.412   0.470   0.487   0.302   0.330   0.378   0.437   0.347
   156.00    0.394   0.463   0.326   0.433   0.487   0.434   0.439   0.342   0.379   0.321   0.378   0.388   0.374   0.364   0.404   0.476   0.446   0.402   0.352   0.433   0.503   0.402   0.389   0.443   0.448   0.446   0.492   0.461   0.425   0.435   0.566   0.369   0.437
   151.00    0.403   0.412   0.346   0.518   0.518   0.338   0.394   0.377   0.376   0.378   0.426   0.347   0.401   0.349   0.426   0.449   0.409   0.374   0.415   0.369   0.348   0.413   0.354   0.412   0.389   0.473   0.537   0.334   0.402   0.434   0.545   0.480   0.457
   146.00    0.565   0.601   0.362   0.545   0.483   0.385   0.396   0.393   0.376   0.371   0.412   0.411   0.421   0.433   0.346   0.457   0.485   0.434   0.363   0.422   0.447   0.343   0.376   0.389   0.380   0.451   0.449   0.405   0.362   0.405   0.463   0.429   0.459
   141.00    0.521   0.591   0.517   0.545   0.526   0.467   0.477   0.361   0.427   0.456   0.357   0.342   0.387   0.368   0.421   0.430   0.379   0.361   0.350   0.454   0.387   0.449   0.343   0.315   0.438   0.435   0.329   0.408   0.372   0.342   0.381   0.377   0.506
   136.00    0.458   0.497   0.489   0.372   0.382   0.391   0.433   0.441   0.383   0.425   0.459   0.388   0.339   0.465   0.423   0.391   0.456   0.484   0.320   0.433   0.395   0.430   0.350   0.400   0.475   0.563   0.467   0.508   0.584   0.481   0.431   0.555   0.498
   131.00    0.448   0.471   0.574   0.428   0.452   0.328   0.348   0.318   0.384   0.386   0.405   0.340   0.348   0.438   0.480   0.454   0.406   0.394   0.472   0.451   0.372   0.320   0.350   0.365   0.426   0.517   0.428   0.428   0.476   0.502   0.486   0.404   0.563
   126.00    0.361   0.467   0.485   0.485   0.463   0.454   0.344   0.449   0.503   0.342   0.393   0.404   0.482   0.352   0.430   0.419   0.459   0.374   0.404   0.354   0.414   0.442   0.389   0.325   0.388   0.363   0.490   0.525   0.342   0.394   0.367   0.450   0.520
   121.00    0.399   0.433   0.321   0.440   0.380   0.410   0.340   0.419   0.390   0.344   0.364   0.440   0.347   0.455   0.483   0.467   0.555   0.308   0.450   0.432   0.437   0.365   0.381   0.386   0.346   0.377   0.370   0.430   0.457   0.397   0.409   0.403   0.472
   116.00    0.338   0.339   0.400   0.459   0.419   0.332   0.337   0.390   0.501   0.326   0.473   0.370   0.412   0.308   0.386   0.513   0.635   0.372   0.499   0.328   0.333   0.382   0.360   0.323   0.487   0.515   0.498   0.349   0.417   0.395   0.362   0.364   0.414
   111.00    0.524   0.379   0.364   0.372   0.394   0.333   0.536   0.629   0.576   0.378   0.494   0.365   0.406   0.361   0.321   0.474   0.527   0.647   0.509   0.543   0.320   0.338   0.506   0.460   0.502   0.466   0.357   0.420   0.345   0.403   0.376   0.362   0.384
   106.00    0.495   0.345   0.394   0.496   0.528   0.548   0.510   0.593   0.416   0.341   0.392   0.424   0.471   0.358   0.407   0.462   0.569   0.698   0.546   0.552   0.504   0.514   0.658   0.713   0.397   0.343   0.361   0.371   0.360   0.409   0.379   0.347   0.323
   101.00    0.405   0.452   0.520   0.480   0.421   0.390   0.517   0.474   0.608   0.489   0.296   0.376   0.497   0.523   0.331   0.399   0.475   0.547   0.568   0.502   0.434   0.502   0.547   0.598   0.600   0.376   0.354   0.369   0.329   0.376   0.413   0.495   0.440
    96.00    0.394   0.335   0.454   0.471   0.448   0.408   0.513   0.539   0.588   0.599   0.591   0.387   0.444   0.507   0.460   0.376   0.406   0.443   0.456   0.349   0.422   0.377   0.404   0.424   0.487   0.422   0.404   0.376   0.349   0.351   0.371   0.550   0.617
    91.00    0.548   0.369   0.342   0.451   0.404   0.393   0.399   0.436   0.530   0.459   0.498   0.436   0.426   0.436   0.479   0.446   0.461   0.429   0.386   0.383   0.360   0.366   0.394   0.357   0.435   0.486   0.398   0.447   0.500   0.359   0.364   0.486   0.550
    86.00    0.477   0.466   0.463   0.398   0.390   0.548   0.611   0.379   0.476   0.404   0.439   0.317   0.436   0.335   0.439   0.380   0.348   0.395   0.448   0.342   0.395   0.445   0.396   0.387   0.387   0.426   0.345   0.420   0.450   0.308   0.383   0.406   0.471
    81.00    0.368   0.404   0.305   0.358   0.444   0.535   0.532   0.296   0.446   0.464   0.451   0.399   0.522   0.302   0.475   0.439   0.439   0.455   0.372   0.465   0.534   0.375   0.453   0.399   0.385   0.442   0.342   0.376   0.297   0.378   0.361   0.424   0.397
    76.00    0.417   0.349   0.448   0.435   0.357   0.374   0.399   0.438   0.328   0.424   0.423   0.455   0.518   0.441   0.466   0.426   0.373   0.346   0.434   0.488   0.412   0.392   0.329   0.344   0.379   0.347   0.372   0.437   0.406   0.345   0.452   0.313   0.390
    71.00    0.580   0.452   0.530   0.481   0.557   0.503   0.379   0.477   0.482   0.313   0.366   0.410   0.470   0.404   0.340   0.336   0.335   0.366   0.331   0.434   0.322   0.509   0.464   0.534   0.349   0.366   0.373   0.361   0.416   0.461   0.495   0.374   0.436
    66.00    0.566   0.561   0.325   0.496   0.574   0.369   0.380   0.348   0.422   0.463   0.367   0.410   0.389   0.390   0.371   0.374   0.401   0.394   0.551   0.591   0.423   0.578   0.469   0.532   0.507   0.338   0.356   0.495   0.439   0.320   0.462   0.585   0.522
    61.00    0.483   0.507   0.520   0.508   0.521   0.432   0.337   0.482   0.435   0.332   0.453   0.510   0.418   0.319   0.402   0.424   0.374   0.458   0.526   0.545   0.394   0.502   0.524   0.540   0.358   0.399   0.473   0.503   0.299   0.392   0.370   0.419   0.500
    56.00    0.556   0.367   0.513   0.618   0.422   0.334   0.340   0.480   0.491   0.393   0.368   0.378   0.459   0.395   0.441   0.423   0.316   0.394   0.381   0.420   0.445   0.477   0.475   0.416   0.454   0.427   0.387   0.390   0.498   0.412   0.385   0.402   0.382
    51.00    0.432   0.529   0.455   0.548   0.521   0.357   0.465   0.457   0.458   0.417   0.343   0.420   0.485   0.489   0.475   0.337   0.378   0.397   0.483   0.349   0.430   0.309   0.438   0.403   0.391   0.333   0.387   0.449   0.427   0.530   0.471   0.399   0.355
    46.00    0.366   0.355   0.466   0.431   0.398   0.410   0.343   0.394   0.393   0.350   0.476   0.493   0.541   0.550   0.365   0.361   0.384   0.508   0.479   0.351   0.378   0.445   0.328   0.384   0.318   0.342   0.420   0.392   0.449   0.547   0.320   0.439   0.421
    41.00    0.450   0.498   0.632   0.668   0.550   0.555   0.473   0.390   0.441   0.365   0.451   0.506   0.569   0.509   0.501   0.457   0.406   0.467   0.455   0.510   0.340   0.373   0.425   0.345   0.489   0.408   0.503   0.376   0.409   0.530   0.387   0.453   0.425
    36.00    0.490   0.419   0.537   0.610   0.440   0.416   0.552   0.543   0.294   0.424   0.484   0.521   0.537   0.353   0.398   0.406   0.405   0.422   0.583   0.674   0.388   0.371   0.389   0.355   0.372   0.543   0.387   0.491   0.327   0.463   0.523   0.412   0.451
    31.00    0.512   0.446   0.439   0.539   0.542   0.376   0.445   0.490   0.337   0.363   0.328   0.470   0.439   0.337   0.335   0.426   0.442   0.474   0.528   0.601   0.583   0.314   0.378   0.335   0.457   0.585   0.503   0.476   0.539   0.439   0.377   0.471   0.440
    26.00    0.509   0.452   0.515   0.573   0.575   0.548   0.333   0.356   0.426   0.409   0.414   0.353   0.354   0.379   0.411   0.446   0.357   0.390   0.451   0.567   0.431   0.487   0.461   0.494   0.479   0.437   0.425   0.369   0.447   0.380   0.447   0.525   0.313
    21.00    0.469   0.374   0.413   0.438   0.440   0.441   0.337   0.342   0.417   0.541   0.316   0.367   0.440   0.376   0.361   0.376   0.343   0.445   0.359   0.553   0.590   0.486   0.373   0.462   0.421   0.480   0.456   0.341   0.441   0.529   0.571   0.418   0.482
    16.00    0.496   0.323   0.393   0.353   0.379   0.374   0.357   0.360   0.440   0.525   0.396   0.426   0.398   0.446   0.478   0.323   0.435   0.426   0.358   0.496   0.549   0.631   0.396   0.325   0.329   0.346   0.383   0.355   0.414   0.425   0.382   0.386   0.453
    11.00    0.506   0.335   0.332   0.340   0.441   0.365   0.472   0.388   0.382   0.431   0.499   0.325   0.396   0.480   0.509   0.324   0.416   0.419   0.390   0.340   0.434   0.478   0.470   0.413   0.417   0.409   0.356   0.413   0.346   0.349   0.397   0.419   0.395
     6.00    0.492   0.526   0.429   0.359   0.394   0.394   0.385   0.339   0.397   0.362   0.445   0.330   0.445   0.396   0.454   0.456   0.346   0.368   0.475   0.440   0.393   0.364   0.320   0.359   0.405   0.336   0.357   0.352   0.398   0.390   0.325   0.406   0.315
     1.00    0.434   0.480   0.365   0.424   0.405   0.440   0.344   0.383   0.415   0.385   0.394   0.373   0.483   0.420   0.496   0.408   0.354   0.354   0.457   0.509   0.387   0.438   0.354   0.454   0.412   0.506   0.359   0.384   0.325   0.394   0.454   0.370   0.391

   Mean standard deviation across all grid points:
      u component:    0.467 m/s
      v component:    0.510 m/s
      w component:    0.426 m/s


U-component (X) statistics from the interpolated hub point:

   Mean =  10.0559 m/s
   TI   =   4.1699 %


Processing complete.  1.6937 CPU seconds used.
