
This summary file was generated by TurbSim (from OpenFAST-v3.5.0-dirty) on 30-Nov-2023 at 16:46:10.


Runtime Options:

   2318573  Random seed #1
    RANLUX  Type of random number generator
         F  Output binary HH turbulence parameters?
         F  Output formatted turbulence parameters?
         F  Output AeroDyn HH files?
         T  Output AeroDyn FF files?
         F  Output BLADED FF files?
         F  Output tower data?
         F  Output HAWC FF files?
         F  Output formatted FF files?
         T  Output coherent turbulence time step file?
 0 -  NONE  IEC turbulence models scaled to exact specified standard deviation


Turbine/Model Specifications:

        35  Vertical grid-point matrix dimension
        33  Horizontal grid-point matrix dimension
     0.300  Time step [seconds]
    10.000  Analysis time [seconds]
    10.000  Usable output time [seconds]
    91.000  Hub height [m]
   170.000  Grid height [m]
   160.000  Grid width [m]
     0.000  Vertical flow angle [degrees]
     0.000  Horizontal flow angle [degrees]


Meteorological Boundary Conditions:

    TIMESR  User-input time series spectral model
       N/A  IEC standard
       N/A  IEC turbulence characteristic
       N/A  IEC turbulence type
       N/A  IEC Extreme Turbulence Model (ETM) "c" parameter [m/s]
       PL   Wind profile type
    88.500  Reference height [m]
    10.000  Reference wind speed [m/s]
       N/A  Jet height [m]
     0.200  Power law exponent
     0.030  Surface roughness length [m]


Non-IEC Meteorological Boundary Conditions:

    45.000  Site latitude [degrees]
     0.050  Gradient Richardson number
     0.481  Friction or shear velocity [m/s]
       N/A  Mixing layer depth [m]
       N/A  Mean hub u'w' Reynolds stress
       N/A  Mean hub u'v' Reynolds stress
       N/A  Mean hub v'w' Reynolds stress


Spatial Coherence Models:

       IEC  u-component coherence model
       IEC  v-component coherence model
       IEC  w-component coherence model
(   12.000, 0.353E-03)  u-component coherence parameters
(   12.000, 0.353E-03)  v-component coherence parameters
(   12.000, 0.353E-03)  w-component coherence parameters
       N/A  Coherence exponent


Coherent Turbulence Scaling Parameters:

.\EventData
            Name of the path containing the coherent turbulence data files
       les  Type of coherent turbulence data files
     1.000  Disturbance scale (ratio of wave height to rotor diameter)
     0.500  Fractional location of tower centerline from right
     0.500  Fractional location of hub height from the bottom of the dataset
    30.000  Minimum start time for coherent structures [seconds]


Profiles from User-Defined Time-Series Input:

  Height   Wind Speed   Horizontal Angle   Vertical Angle
   (m)        (m/s)          (deg)              (deg)    
  ------   ----------   ----------------   --------------
   76.00       9.70           0.00               -0.00


You have requested that the following file(s) be generated:

   ./Test/Cond00_v10.0_PL0.2_TI10/Case0_wdirp00/Seed_0/TurbSim/HighT3.bts (AeroDyn/TurbSim full-field wind file)


Turbulence Simulation Scaling Parameter Summary:

   Turbulence model used                            =  User-input time series
   Gradient Richardson number                       =    0.050
   Monin-Obukhov (M-O) z/L parameter                =    0.067
   Monin-Obukhov (M-O) length scale                 = 1365.000 m
   Mean wind speed at hub height                    =   10.056 m/s

   Wind profile type                                =  Power law
   Power law exponent                               =    0.200
   Mean shear across rotor disk                     =    0.030 (m/s)/m
   Assumed rotor diameter                           =  160.000 m
   Surface roughness length                         =    0.030 m

   Nyquist frequency of turbulent wind field        =    1.667 Hz

   Number of time steps in the FFT                  =       34
   Number of time steps output                      =       34
   Number of points simulated                       =     1156


Mean Flow Angles:

   Vertical   =   0.0 degrees
   Horizontal =   0.0 degrees

Mean Wind Speed Profile:

   Height    Wind Speed   Horizontal Angle  Vertical Angle  U-comp (X)   V-comp (Y)   W-comp (Z)
     (m)        (m/s)         (degrees)       (degrees)       (m/s)        (m/s)        (m/s)   
   ------    ----------   ----------------  --------------  ----------   ----------   ----------
    171.0       11.41            0.00            0.00         11.41         0.00         0.00
    166.0       11.34            0.00            0.00         11.34         0.00         0.00
    161.0       11.27            0.00            0.00         11.27         0.00         0.00
    156.0       11.20            0.00            0.00         11.20         0.00         0.00
    151.0       11.13            0.00            0.00         11.13         0.00         0.00
    146.0       11.05            0.00            0.00         11.05         0.00         0.00
    141.0       10.98            0.00            0.00         10.98         0.00         0.00
    136.0       10.90            0.00            0.00         10.90         0.00         0.00
    131.0       10.82            0.00            0.00         10.82         0.00         0.00
    126.0       10.73            0.00            0.00         10.73         0.00         0.00
    121.0       10.65            0.00            0.00         10.65         0.00         0.00
    116.0       10.56            0.00            0.00         10.56         0.00         0.00
    111.0       10.46            0.00            0.00         10.46         0.00         0.00
    106.0       10.37            0.00            0.00         10.37         0.00         0.00
    101.0       10.27            0.00            0.00         10.27         0.00         0.00
     96.0       10.16            0.00            0.00         10.16         0.00         0.00
     91.0       10.06            0.00            0.00         10.06         0.00         0.00
     86.0        9.94            0.00            0.00          9.94         0.00         0.00
     81.0        9.82            0.00            0.00          9.82         0.00         0.00
     76.0        9.70            0.00            0.00          9.70         0.00         0.00
     71.0        9.57            0.00            0.00          9.57         0.00         0.00
     66.0        9.43            0.00            0.00          9.43         0.00         0.00
     61.0        9.28            0.00            0.00          9.28         0.00         0.00
     56.0        9.13            0.00            0.00          9.13         0.00         0.00
     51.0        8.96            0.00            0.00          8.96         0.00         0.00
     46.0        8.77            0.00            0.00          8.77         0.00         0.00
     41.0        8.57            0.00            0.00          8.57         0.00         0.00
     36.0        8.35            0.00            0.00          8.35         0.00         0.00
     31.0        8.11            0.00            0.00          8.11         0.00         0.00
     26.0        7.83            0.00            0.00          7.83         0.00         0.00
     21.0        7.50            0.00            0.00          7.50         0.00         0.00
     16.0        7.10            0.00            0.00          7.10         0.00         0.00
     11.0        6.59            0.00            0.00          6.59         0.00         0.00
      6.0        5.84            0.00            0.00          5.84         0.00         0.00
      1.0        4.08            0.00            0.00          4.08         0.00         0.00


Harvested Random Seeds after Generation of the Random Numbers:

       547700 K 1
            0 K 2


Hub-Height Simulated Turbulence Statistical Summary:

   Type of Wind        Min (m/s)   Mean (m/s)    Max (m/s)  Sigma (m/s)       TI (%)
   ----------------    ---------   ----------    ---------  -----------       ------
   Longitudinal (u)         9.30        10.06        10.91        0.399        3.972
   Lateral (v)             -0.70         0.00         0.87        0.432        4.300
   Vertical (w)            -0.82         0.00         1.07        0.482        4.792
   U component              9.30        10.06        10.91        0.399        3.972
   V component             -0.70         0.00         0.87        0.432        4.300
   W component             -0.82         0.00         1.07        0.482        4.792
   Horizontal (U&V)         9.30        10.07        10.91        0.399        3.963
   Total                    9.30        10.08        10.91        0.399        3.962

                       Min Reynolds     Mean Reynolds    Max Reynolds    Correlation
   Product             Stress (m/s)^2   Stress (m/s)^2   Stress (m/s)^2  Coefficient
   ----------------    --------------   --------------   --------------  -----------
   u'w'                     -0.445            -0.064             0.303        -0.331
   u'v'                     -0.435             0.000             0.257         0.001
   v'w'                     -0.489            -0.004             0.333        -0.017


   Friction Velocity (Ustar)  =      0.252 m/s
   Maximum Instantaneous TKE  =      0.690 (m/s)^2
   Maximum Instantaneous CTKE =      0.317 (m/s)^2


Grid Point Variance Summary:

   Y-coord  -80.00  -75.00  -70.00  -65.00  -60.00  -55.00  -50.00  -45.00  -40.00  -35.00  -30.00  -25.00  -20.00  -15.00  -10.00   -5.00    0.00    5.00   10.00   15.00   20.00   25.00   30.00   35.00   40.00   45.00   50.00   55.00   60.00   65.00   70.00   75.00   80.00

   Height   Standard deviation at grid points for the u component:
   171.00    0.394   0.517   0.545   0.678   0.620   0.423   0.511   0.398   0.486   0.392   0.478   0.355   0.316   0.420   0.575   0.368   0.383   0.352   0.517   0.403   0.493   0.358   0.389   0.397   0.455   0.637   0.584   0.600   0.399   0.420   0.468   0.444   0.472
   166.00    0.382   0.460   0.315   0.524   0.562   0.358   0.364   0.438   0.442   0.549   0.326   0.575   0.607   0.307   0.474   0.463   0.424   0.356   0.495   0.402   0.503   0.369   0.334   0.461   0.414   0.504   0.408   0.418   0.390   0.361   0.447   0.368   0.425
   161.00    0.396   0.451   0.378   0.380   0.560   0.382   0.409   0.495   0.602   0.582   0.570   0.482   0.447   0.509   0.422   0.408   0.350   0.536   0.486   0.461   0.445   0.392   0.396   0.482   0.643   0.400   0.477   0.296   0.447   0.479   0.567   0.359   0.439
   156.00    0.345   0.559   0.576   0.583   0.541   0.530   0.619   0.402   0.522   0.403   0.459   0.392   0.335   0.440   0.465   0.449   0.445   0.524   0.452   0.411   0.432   0.297   0.522   0.382   0.592   0.483   0.596   0.384   0.402   0.475   0.487   0.341   0.482
   151.00    0.551   0.525   0.446   0.459   0.390   0.415   0.518   0.401   0.547   0.439   0.329   0.362   0.451   0.482   0.292   0.431   0.313   0.341   0.329   0.464   0.410   0.418   0.600   0.538   0.565   0.461   0.541   0.554   0.450   0.529   0.328   0.397   0.451
   146.00    0.472   0.548   0.584   0.584   0.498   0.455   0.446   0.349   0.348   0.467   0.538   0.416   0.472   0.534   0.551   0.373   0.455   0.402   0.475   0.543   0.431   0.552   0.650   0.541   0.598   0.456   0.502   0.564   0.477   0.412   0.530   0.607   0.583
   141.00    0.423   0.420   0.592   0.615   0.404   0.380   0.408   0.435   0.548   0.349   0.436   0.397   0.418   0.598   0.529   0.351   0.347   0.415   0.330   0.401   0.342   0.529   0.528   0.379   0.389   0.591   0.585   0.385   0.521   0.418   0.512   0.539   0.408
   136.00    0.437   0.456   0.560   0.666   0.456   0.403   0.376   0.503   0.580   0.349   0.485   0.686   0.417   0.466   0.419   0.454   0.455   0.417   0.430   0.401   0.515   0.493   0.428   0.495   0.577   0.607   0.443   0.569   0.388   0.375   0.368   0.435   0.496
   131.00    0.467   0.579   0.621   0.572   0.434   0.551   0.429   0.470   0.477   0.412   0.495   0.586   0.565   0.556   0.314   0.506   0.382   0.444   0.346   0.469   0.429   0.503   0.364   0.485   0.668   0.397   0.561   0.617   0.570   0.565   0.545   0.427   0.369
   126.00    0.309   0.373   0.423   0.398   0.510   0.480   0.398   0.388   0.502   0.534   0.624   0.346   0.419   0.383   0.339   0.386   0.390   0.321   0.476   0.504   0.387   0.397   0.392   0.413   0.539   0.642   0.593   0.573   0.467   0.559   0.600   0.518   0.460
   121.00    0.487   0.464   0.398   0.404   0.446   0.351   0.511   0.410   0.507   0.458   0.529   0.531   0.393   0.407   0.371   0.503   0.511   0.609   0.594   0.302   0.398   0.414   0.550   0.406   0.505   0.461   0.517   0.461   0.487   0.472   0.591   0.551   0.393
   116.00    0.380   0.427   0.413   0.425   0.600   0.521   0.490   0.419   0.581   0.371   0.470   0.329   0.363   0.443   0.387   0.440   0.542   0.631   0.608   0.385   0.351   0.448   0.541   0.441   0.348   0.360   0.368   0.398   0.397   0.506   0.566   0.535   0.557
   111.00    0.496   0.432   0.313   0.570   0.630   0.623   0.375   0.387   0.445   0.575   0.353   0.385   0.372   0.429   0.438   0.553   0.607   0.633   0.501   0.409   0.420   0.369   0.477   0.400   0.491   0.407   0.420   0.308   0.532   0.497   0.405   0.495   0.506
   106.00    0.419   0.450   0.587   0.624   0.431   0.477   0.459   0.533   0.481   0.441   0.409   0.365   0.321   0.439   0.573   0.564   0.653   0.575   0.488   0.480   0.506   0.438   0.367   0.387   0.501   0.396   0.335   0.369   0.449   0.494   0.386   0.392   0.382
   101.00    0.369   0.385   0.433   0.611   0.595   0.539   0.330   0.501   0.556   0.392   0.373   0.467   0.414   0.389   0.476   0.599   0.629   0.447   0.379   0.516   0.459   0.507   0.411   0.506   0.460   0.339   0.419   0.494   0.383   0.384   0.343   0.465   0.552
    96.00    0.411   0.360   0.502   0.558   0.554   0.627   0.449   0.398   0.558   0.363   0.428   0.381   0.515   0.535   0.313   0.384   0.445   0.361   0.368   0.410   0.432   0.352   0.459   0.547   0.398   0.364   0.428   0.517   0.326   0.362   0.470   0.431   0.476
    91.00    0.374   0.359   0.370   0.417   0.346   0.523   0.674   0.503   0.518   0.616   0.626   0.498   0.517   0.427   0.477   0.377   0.399   0.450   0.459   0.609   0.327   0.407   0.420   0.399   0.384   0.363   0.378   0.335   0.491   0.460   0.495   0.373   0.396
    86.00    0.385   0.389   0.410   0.352   0.378   0.481   0.581   0.584   0.391   0.465   0.449   0.319   0.444   0.541   0.285   0.376   0.575   0.672   0.504   0.559   0.378   0.510   0.306   0.377   0.390   0.410   0.389   0.513   0.286   0.496   0.512   0.460   0.547
    81.00    0.404   0.441   0.464   0.312   0.406   0.392   0.477   0.669   0.714   0.676   0.536   0.557   0.422   0.420   0.432   0.446   0.455   0.505   0.477   0.634   0.637   0.392   0.520   0.414   0.439   0.342   0.349   0.486   0.481   0.583   0.563   0.398   0.460
    76.00    0.653   0.340   0.455   0.570   0.546   0.462   0.560   0.551   0.550   0.519   0.490   0.392   0.437   0.347   0.556   0.474   0.531   0.418   0.391   0.405   0.538   0.601   0.403   0.424   0.310   0.452   0.412   0.436   0.384   0.506   0.372   0.360   0.410
    71.00    0.650   0.610   0.349   0.407   0.523   0.512   0.569   0.423   0.357   0.435   0.411   0.515   0.553   0.610   0.590   0.634   0.423   0.466   0.392   0.422   0.371   0.516   0.370   0.366   0.361   0.370   0.363   0.471   0.518   0.450   0.456   0.365   0.376
    66.00    0.591   0.631   0.375   0.375   0.413   0.512   0.534   0.588   0.392   0.443   0.393   0.439   0.465   0.584   0.533   0.487   0.509   0.501   0.556   0.480   0.347   0.393   0.470   0.347   0.453   0.521   0.448   0.452   0.507   0.584   0.657   0.555   0.473
    61.00    0.548   0.612   0.527   0.292   0.395   0.393   0.465   0.398   0.420   0.452   0.508   0.556   0.432   0.561   0.409   0.403   0.340   0.482   0.552   0.315   0.519   0.469   0.402   0.424   0.357   0.416   0.351   0.535   0.638   0.410   0.563   0.507   0.339
    56.00    0.582   0.438   0.536   0.624   0.483   0.331   0.466   0.415   0.328   0.436   0.406   0.361   0.434   0.462   0.420   0.524   0.329   0.415   0.446   0.310   0.365   0.454   0.488   0.379   0.449   0.354   0.483   0.534   0.454   0.431   0.534   0.397   0.390
    51.00    0.429   0.453   0.469   0.461   0.371   0.455   0.419   0.415   0.390   0.354   0.355   0.547   0.608   0.344   0.477   0.586   0.537   0.486   0.421   0.519   0.465   0.437   0.420   0.336   0.370   0.338   0.425   0.563   0.346   0.386   0.521   0.371   0.355
    46.00    0.358   0.399   0.397   0.306   0.404   0.416   0.389   0.453   0.458   0.405   0.436   0.437   0.383   0.541   0.639   0.677   0.372   0.478   0.426   0.567   0.489   0.516   0.606   0.313   0.436   0.520   0.529   0.575   0.358   0.534   0.468   0.368   0.503
    41.00    0.596   0.487   0.351   0.583   0.385   0.296   0.338   0.441   0.363   0.429   0.388   0.449   0.552   0.522   0.565   0.578   0.472   0.444   0.524   0.628   0.489   0.514   0.385   0.407   0.380   0.386   0.469   0.625   0.451   0.529   0.468   0.351   0.399
    36.00    0.556   0.493   0.640   0.606   0.662   0.506   0.436   0.420   0.398   0.385   0.506   0.513   0.405   0.468   0.422   0.439   0.426   0.565   0.621   0.553   0.443   0.544   0.534   0.373   0.328   0.425   0.360   0.498   0.505   0.502   0.369   0.559   0.339
    31.00    0.466   0.465   0.499   0.430   0.465   0.505   0.508   0.392   0.537   0.368   0.454   0.441   0.307   0.409   0.406   0.431   0.445   0.487   0.626   0.695   0.406   0.453   0.412   0.387   0.438   0.478   0.603   0.377   0.477   0.448   0.347   0.467   0.614
    26.00    0.417   0.325   0.407   0.410   0.376   0.384   0.554   0.594   0.659   0.645   0.355   0.351   0.417   0.379   0.368   0.348   0.397   0.339   0.481   0.533   0.480   0.374   0.418   0.461   0.437   0.408   0.514   0.313   0.377   0.402   0.442   0.342   0.531
    21.00    0.462   0.415   0.395   0.486   0.365   0.591   0.494   0.635   0.544   0.544   0.491   0.371   0.497   0.384   0.375   0.348   0.449   0.439   0.517   0.542   0.297   0.406   0.347   0.378   0.326   0.388   0.361   0.501   0.318   0.387   0.420   0.338   0.529
    16.00    0.455   0.334   0.386   0.577   0.591   0.513   0.553   0.616   0.337   0.416   0.396   0.465   0.460   0.349   0.301   0.346   0.538   0.324   0.452   0.478   0.391   0.413   0.430   0.548   0.457   0.470   0.287   0.457   0.491   0.367   0.373   0.278   0.463
    11.00    0.382   0.474   0.441   0.548   0.493   0.408   0.427   0.522   0.462   0.335   0.366   0.370   0.446   0.504   0.449   0.531   0.559   0.485   0.535   0.477   0.402   0.387   0.465   0.436   0.315   0.423   0.652   0.415   0.390   0.435   0.520   0.475   0.463
     6.00    0.477   0.461   0.451   0.477   0.421   0.342   0.470   0.535   0.419   0.332   0.417   0.412   0.435   0.426   0.463   0.598   0.590   0.479   0.575   0.588   0.391   0.421   0.387   0.394   0.445   0.624   0.629   0.551   0.518   0.457   0.489   0.455   0.432
     1.00    0.466   0.538   0.501   0.326   0.373   0.487   0.502   0.533   0.434   0.498   0.435   0.406   0.465   0.448   0.460   0.556   0.543   0.419   0.488   0.564   0.614   0.377   0.413   0.406   0.333   0.430   0.541   0.580   0.438   0.480   0.362   0.428   0.468

   Height   Standard deviation at grid points for the v component:
   171.00    0.543   0.642   0.559   0.584   0.362   0.522   0.527   0.567   0.440   0.475   0.507   0.376   0.493   0.421   0.422   0.474   0.422   0.534   0.487   0.538   0.528   0.424   0.404   0.366   0.441   0.506   0.477   0.485   0.500   0.495   0.450   0.382   0.459
   166.00    0.477   0.399   0.587   0.746   0.490   0.625   0.504   0.488   0.412   0.564   0.345   0.523   0.539   0.371   0.393   0.421   0.351   0.527   0.488   0.619   0.531   0.478   0.516   0.472   0.448   0.506   0.400   0.542   0.371   0.391   0.654   0.750   0.525
   161.00    0.381   0.534   0.561   0.613   0.584   0.620   0.469   0.424   0.486   0.471   0.445   0.435   0.445   0.586   0.683   0.686   0.661   0.698   0.650   0.413   0.551   0.447   0.522   0.634   0.317   0.382   0.553   0.532   0.461   0.555   0.579   0.648   0.600
   156.00    0.441   0.482   0.428   0.467   0.424   0.451   0.465   0.380   0.430   0.386   0.563   0.342   0.666   0.570   0.632   0.510   0.651   0.415   0.441   0.580   0.542   0.638   0.694   0.426   0.462   0.428   0.556   0.528   0.723   0.511   0.553   0.561   0.527
   151.00    0.575   0.422   0.442   0.470   0.479   0.558   0.568   0.404   0.482   0.367   0.484   0.579   0.659   0.865   0.776   0.519   0.688   0.454   0.586   0.417   0.595   0.458   0.582   0.635   0.365   0.418   0.537   0.651   0.670   0.733   0.477   0.455   0.425
   146.00    0.453   0.557   0.377   0.387   0.490   0.520   0.542   0.685   0.450   0.461   0.438   0.577   0.732   0.762   0.713   0.590   0.529   0.579   0.582   0.616   0.568   0.468   0.478   0.471   0.526   0.412   0.433   0.433   0.515   0.408   0.598   0.377   0.436
   141.00    0.557   0.483   0.419   0.501   0.339   0.478   0.420   0.492   0.604   0.385   0.325   0.558   0.583   0.731   0.460   0.504   0.475   0.595   0.446   0.702   0.457   0.447   0.399   0.454   0.363   0.458   0.434   0.402   0.356   0.483   0.514   0.414   0.436
   136.00    0.480   0.567   0.337   0.424   0.444   0.408   0.471   0.407   0.472   0.582   0.367   0.582   0.654   0.737   0.426   0.411   0.464   0.408   0.661   0.751   0.509   0.419   0.463   0.500   0.552   0.476   0.356   0.525   0.461   0.363   0.419   0.602   0.676
   131.00    0.391   0.658   0.696   0.403   0.428   0.403   0.563   0.466   0.473   0.441   0.526   0.600   0.481   0.582   0.550   0.365   0.400   0.409   0.502   0.636   0.664   0.386   0.444   0.414   0.418   0.454   0.411   0.558   0.419   0.643   0.557   0.707   0.540
   126.00    0.538   0.628   0.514   0.467   0.400   0.450   0.466   0.668   0.374   0.428   0.507   0.478   0.456   0.402   0.620   0.389   0.509   0.436   0.389   0.407   0.643   0.626   0.566   0.371   0.427   0.372   0.445   0.442   0.408   0.548   0.609   0.595   0.476
   121.00    0.392   0.480   0.505   0.386   0.524   0.348   0.421   0.500   0.535   0.553   0.471   0.446   0.441   0.674   0.544   0.429   0.548   0.394   0.623   0.678   0.620   0.526   0.568   0.430   0.401   0.451   0.412   0.428   0.486   0.499   0.520   0.500   0.533
   116.00    0.574   0.428   0.483   0.358   0.343   0.438   0.545   0.433   0.498   0.408   0.446   0.521   0.648   0.597   0.465   0.516   0.484   0.428   0.492   0.561   0.395   0.470   0.341   0.455   0.527   0.394   0.555   0.428   0.486   0.477   0.385   0.473   0.371
   111.00    0.558   0.408   0.515   0.417   0.494   0.533   0.464   0.395   0.440   0.503   0.601   0.525   0.545   0.498   0.465   0.445   0.551   0.399   0.524   0.407   0.429   0.389   0.483   0.567   0.324   0.495   0.437   0.392   0.381   0.415   0.425   0.540   0.429
   106.00    0.443   0.467   0.507   0.430   0.524   0.571   0.633   0.606   0.406   0.499   0.506   0.436   0.596   0.385   0.524   0.490   0.519   0.580   0.544   0.527   0.531   0.470   0.603   0.420   0.509   0.607   0.444   0.363   0.496   0.475   0.402   0.448   0.455
   101.00    0.515   0.592   0.603   0.487   0.445   0.691   0.558   0.514   0.368   0.511   0.514   0.482   0.489   0.539   0.471   0.453   0.484   0.547   0.358   0.339   0.483   0.652   0.624   0.460   0.355   0.442   0.512   0.411   0.426   0.452   0.576   0.370   0.482
    96.00    0.375   0.371   0.467   0.417   0.542   0.660   0.699   0.641   0.554   0.530   0.471   0.423   0.597   0.458   0.398   0.430   0.529   0.468   0.573   0.730   0.764   0.597   0.451   0.416   0.431   0.475   0.488   0.463   0.462   0.468   0.573   0.613   0.609
    91.00    0.580   0.670   0.629   0.425   0.576   0.426   0.478   0.503   0.509   0.446   0.663   0.552   0.534   0.707   0.623   0.454   0.432   0.513   0.563   0.546   0.649   0.728   0.552   0.421   0.452   0.616   0.513   0.624   0.468   0.477   0.496   0.453   0.391
    86.00    0.523   0.457   0.527   0.372   0.468   0.517   0.539   0.495   0.498   0.593   0.538   0.754   0.891   0.685   0.592   0.459   0.586   0.470   0.418   0.476   0.439   0.612   0.719   0.343   0.458   0.532   0.587   0.569   0.438   0.393   0.481   0.533   0.575
    81.00    0.414   0.451   0.492   0.416   0.385   0.467   0.524   0.692   0.705   0.432   0.582   0.669   0.744   0.613   0.373   0.482   0.543   0.484   0.347   0.455   0.485   0.420   0.625   0.552   0.585   0.388   0.534   0.516   0.489   0.743   0.860   0.585   0.686
    76.00    0.476   0.424   0.525   0.464   0.413   0.423   0.470   0.573   0.532   0.393   0.442   0.535   0.584   0.478   0.626   0.386   0.506   0.493   0.450   0.449   0.561   0.424   0.479   0.567   0.631   0.339   0.451   0.436   0.386   0.605   0.630   0.620   0.722
    71.00    0.673   0.744   0.472   0.549   0.386   0.496   0.424   0.400   0.538   0.536   0.464   0.378   0.385   0.428   0.464   0.550   0.409   0.473   0.548   0.643   0.442   0.491   0.393   0.431   0.486   0.550   0.419   0.597   0.653   0.391   0.484   0.411   0.506
    66.00    0.654   0.703   0.446   0.434   0.423   0.405   0.529   0.393   0.368   0.431   0.486   0.676   0.444   0.413   0.380   0.488   0.423   0.411   0.490   0.389   0.538   0.416   0.477   0.499   0.437   0.529   0.460   0.471   0.544   0.397   0.471   0.341   0.470
    61.00    0.644   0.771   0.542   0.528   0.413   0.561   0.684   0.495   0.468   0.439   0.507   0.556   0.657   0.379   0.411   0.406   0.442   0.442   0.574   0.536   0.420   0.520   0.403   0.534   0.373   0.460   0.644   0.731   0.712   0.804   0.751   0.529   0.338
    56.00    0.545   0.671   0.526   0.562   0.483   0.409   0.622   0.471   0.403   0.510   0.486   0.460   0.530   0.598   0.373   0.375   0.375   0.649   0.452   0.405   0.515   0.538   0.406   0.452   0.383   0.462   0.628   0.812   0.913   0.871   0.587   0.443   0.455
    51.00    0.461   0.519   0.521   0.476   0.376   0.622   0.740   0.439   0.518   0.391   0.438   0.559   0.391   0.585   0.537   0.561   0.529   0.575   0.633   0.589   0.489   0.434   0.430   0.582   0.399   0.487   0.617   0.661   0.703   0.609   0.550   0.441   0.491
    46.00    0.568   0.482   0.468   0.481   0.470   0.528   0.606   0.438   0.592   0.400   0.481   0.357   0.461   0.542   0.542   0.484   0.467   0.451   0.446   0.449   0.509   0.352   0.522   0.464   0.527   0.634   0.443   0.544   0.634   0.336   0.460   0.447   0.441
    41.00    0.500   0.352   0.506   0.339   0.526   0.474   0.467   0.474   0.694   0.545   0.702   0.364   0.438   0.554   0.339   0.451   0.533   0.441   0.514   0.496   0.495   0.422   0.407   0.428   0.451   0.528   0.614   0.660   0.598   0.487   0.469   0.367   0.565
    36.00    0.607   0.699   0.442   0.497   0.556   0.462   0.434   0.506   0.615   0.687   0.724   0.526   0.516   0.402   0.441   0.483   0.415   0.498   0.340   0.459   0.457   0.392   0.396   0.447   0.602   0.403   0.647   0.664   0.507   0.423   0.360   0.400   0.605
    31.00    0.513   0.460   0.550   0.399   0.575   0.404   0.513   0.413   0.492   0.519   0.504   0.644   0.622   0.679   0.470   0.471   0.448   0.483   0.378   0.416   0.465   0.388   0.494   0.558   0.681   0.583   0.757   0.432   0.467   0.389   0.557   0.704   0.477
    26.00    0.503   0.485   0.508   0.405   0.449   0.492   0.558   0.472   0.434   0.414   0.515   0.547   0.495   0.386   0.492   0.484   0.376   0.489   0.445   0.471   0.409   0.478   0.496   0.367   0.447   0.636   0.672   0.629   0.634   0.559   0.570   0.525   0.579
    21.00    0.473   0.397   0.520   0.396   0.443   0.462   0.483   0.433   0.407   0.499   0.461   0.498   0.522   0.462   0.509   0.446   0.512   0.408   0.476   0.405   0.465   0.345   0.491   0.400   0.481   0.451   0.513   0.549   0.539   0.616   0.426   0.394   0.493
    16.00    0.404   0.464   0.511   0.503   0.427   0.429   0.394   0.447   0.533   0.650   0.547   0.471   0.515   0.341   0.340   0.446   0.441   0.599   0.403   0.467   0.412   0.527   0.395   0.462   0.386   0.481   0.363   0.595   0.414   0.581   0.439   0.530   0.395
    11.00    0.425   0.378   0.389   0.561   0.732   0.750   0.659   0.401   0.734   0.679   0.611   0.527   0.535   0.652   0.430   0.644   0.592   0.530   0.413   0.517   0.488   0.449   0.455   0.562   0.369   0.411   0.482   0.631   0.593   0.548   0.595   0.459   0.353
     6.00    0.440   0.543   0.648   0.727   0.723   0.635   0.690   0.705   0.772   0.662   0.545   0.557   0.417   0.481   0.622   0.644   0.487   0.492   0.465   0.469   0.354   0.467   0.527   0.435   0.471   0.453   0.507   0.542   0.479   0.508   0.680   0.659   0.533
     1.00    0.522   0.475   0.566   0.615   0.629   0.462   0.482   0.575   0.452   0.544   0.651   0.410   0.467   0.509   0.453   0.589   0.616   0.642   0.456   0.432   0.543   0.488   0.590   0.373   0.479   0.408   0.487   0.584   0.389   0.487   0.578   0.622   0.679

   Height   Standard deviation at grid points for the w component:
   171.00    0.395   0.405   0.345   0.339   0.391   0.409   0.446   0.353   0.423   0.351   0.398   0.383   0.352   0.324   0.468   0.389   0.579   0.404   0.378   0.366   0.417   0.444   0.385   0.345   0.404   0.450   0.440   0.509   0.482   0.487   0.351   0.359   0.351
   166.00    0.369   0.367   0.440   0.461   0.484   0.554   0.571   0.370   0.523   0.441   0.444   0.343   0.415   0.392   0.405   0.410   0.469   0.456   0.314   0.424   0.376   0.550   0.521   0.388   0.352   0.360   0.401   0.395   0.453   0.451   0.365   0.405   0.392
   161.00    0.499   0.548   0.511   0.406   0.332   0.368   0.382   0.444   0.503   0.497   0.332   0.346   0.426   0.363   0.391   0.353   0.413   0.500   0.454   0.440   0.507   0.556   0.457   0.466   0.462   0.417   0.482   0.502   0.303   0.331   0.380   0.445   0.352
   156.00    0.397   0.469   0.329   0.444   0.503   0.444   0.446   0.343   0.385   0.323   0.382   0.394   0.381   0.371   0.410   0.488   0.453   0.407   0.354   0.441   0.517   0.411   0.399   0.454   0.459   0.457   0.507   0.470   0.430   0.442   0.586   0.374   0.447
   151.00    0.409   0.416   0.349   0.532   0.532   0.341   0.398   0.382   0.381   0.384   0.435   0.350   0.406   0.350   0.435   0.458   0.418   0.380   0.425   0.371   0.354   0.422   0.356   0.420   0.398   0.484   0.556   0.337   0.407   0.444   0.563   0.495   0.468
   146.00    0.585   0.623   0.368   0.565   0.496   0.388   0.403   0.398   0.381   0.375   0.415   0.416   0.428   0.442   0.350   0.467   0.496   0.445   0.369   0.429   0.456   0.347   0.383   0.394   0.381   0.460   0.461   0.414   0.364   0.411   0.472   0.440   0.469
   141.00    0.538   0.611   0.533   0.562   0.545   0.480   0.488   0.363   0.432   0.471   0.360   0.346   0.395   0.370   0.429   0.440   0.382   0.363   0.355   0.463   0.389   0.455   0.347   0.318   0.446   0.441   0.333   0.416   0.373   0.346   0.389   0.380   0.518
   136.00    0.470   0.510   0.503   0.375   0.388   0.396   0.443   0.451   0.389   0.433   0.472   0.396   0.342   0.476   0.434   0.396   0.469   0.498   0.322   0.443   0.402   0.437   0.352   0.408   0.486   0.579   0.479   0.524   0.603   0.489   0.442   0.574   0.513
   131.00    0.455   0.487   0.592   0.437   0.459   0.330   0.352   0.321   0.388   0.391   0.410   0.345   0.352   0.447   0.492   0.461   0.417   0.399   0.484   0.464   0.375   0.323   0.353   0.367   0.435   0.533   0.433   0.440   0.487   0.514   0.498   0.412   0.581
   126.00    0.363   0.475   0.500   0.498   0.472   0.467   0.346   0.457   0.516   0.347   0.399   0.412   0.495   0.354   0.442   0.426   0.469   0.380   0.412   0.360   0.421   0.452   0.394   0.328   0.395   0.368   0.503   0.540   0.344   0.400   0.371   0.463   0.535
   121.00    0.405   0.440   0.325   0.448   0.389   0.418   0.342   0.425   0.399   0.347   0.367   0.449   0.351   0.464   0.496   0.479   0.574   0.309   0.460   0.440   0.448   0.366   0.387   0.393   0.350   0.383   0.377   0.439   0.465   0.401   0.418   0.410   0.481
   116.00    0.343   0.341   0.406   0.470   0.426   0.335   0.339   0.392   0.513   0.329   0.486   0.373   0.422   0.310   0.389   0.527   0.656   0.377   0.513   0.329   0.337   0.388   0.367   0.325   0.500   0.533   0.512   0.350   0.424   0.397   0.368   0.369   0.422
   111.00    0.539   0.381   0.369   0.377   0.403   0.334   0.552   0.651   0.593   0.381   0.503   0.373   0.419   0.363   0.323   0.488   0.541   0.670   0.522   0.557   0.322   0.338   0.522   0.471   0.516   0.476   0.361   0.428   0.351   0.409   0.380   0.368   0.391
   106.00    0.510   0.347   0.399   0.508   0.540   0.562   0.525   0.612   0.426   0.342   0.395   0.434   0.491   0.364   0.409   0.473   0.585   0.722   0.558   0.571   0.517   0.527   0.681   0.740   0.406   0.346   0.365   0.376   0.363   0.416   0.385   0.351   0.327
   101.00    0.414   0.465   0.537   0.490   0.426   0.393   0.533   0.490   0.631   0.499   0.294   0.391   0.531   0.563   0.331   0.391   0.480   0.563   0.584   0.514   0.439   0.513   0.564   0.619   0.621   0.379   0.361   0.373   0.331   0.378   0.420   0.509   0.449
    96.00    0.398   0.340   0.465   0.479   0.454   0.419   0.529   0.560   0.606   0.619   0.607   0.386   0.467   0.553   0.469   0.378   0.423   0.450   0.473   0.352   0.436   0.378   0.408   0.433   0.502   0.431   0.411   0.378   0.355   0.354   0.375   0.567   0.640
    91.00    0.564   0.371   0.347   0.459   0.408   0.395   0.411   0.447   0.543   0.480   0.521   0.475   0.432   0.460   0.522   0.502   0.482   0.411   0.394   0.404   0.371   0.369   0.400   0.362   0.443   0.497   0.407   0.457   0.513   0.363   0.370   0.500   0.568
    86.00    0.488   0.479   0.474   0.404   0.396   0.567   0.635   0.385   0.484   0.419   0.467   0.308   0.464   0.363   0.484   0.354   0.366   0.368   0.460   0.345   0.410   0.451   0.398   0.391   0.396   0.436   0.348   0.430   0.460   0.310   0.391   0.414   0.483
    81.00    0.371   0.413   0.307   0.361   0.453   0.550   0.552   0.297   0.455   0.478   0.435   0.397   0.458   0.355   0.355   0.518   0.396   0.476   0.368   0.480   0.549   0.375   0.459   0.403   0.391   0.450   0.346   0.382   0.300   0.382   0.364   0.430   0.406
    76.00    0.427   0.352   0.459   0.444   0.360   0.378   0.406   0.458   0.330   0.420   0.400   0.405   0.433   0.357   0.444   0.551   0.382   0.392   0.447   0.511   0.415   0.395   0.330   0.346   0.386   0.350   0.375   0.441   0.409   0.346   0.465   0.313   0.393
    71.00    0.601   0.464   0.546   0.496   0.579   0.520   0.386   0.493   0.499   0.316   0.356   0.385   0.516   0.342   0.493   0.426   0.414   0.398   0.340   0.443   0.330   0.527   0.475   0.549   0.351   0.369   0.380   0.364   0.424   0.473   0.509   0.382   0.445
    66.00    0.584   0.578   0.328   0.511   0.591   0.375   0.384   0.350   0.434   0.494   0.384   0.407   0.464   0.497   0.364   0.470   0.432   0.427   0.598   0.630   0.435   0.602   0.481   0.546   0.519   0.339   0.359   0.507   0.452   0.321   0.472   0.601   0.536
    61.00    0.496   0.522   0.535   0.522   0.536   0.446   0.338   0.490   0.440   0.337   0.473   0.539   0.466   0.337   0.394   0.483   0.373   0.494   0.558   0.574   0.408   0.523   0.544   0.557   0.360   0.406   0.486   0.516   0.299   0.398   0.374   0.425   0.512
    56.00    0.573   0.373   0.527   0.639   0.429   0.339   0.342   0.488   0.501   0.396   0.375   0.397   0.497   0.388   0.463   0.455   0.327   0.416   0.391   0.423   0.456   0.493   0.491   0.424   0.464   0.436   0.394   0.395   0.510   0.420   0.392   0.410   0.387
    51.00    0.442   0.542   0.468   0.566   0.540   0.358   0.474   0.466   0.469   0.421   0.342   0.424   0.501   0.507   0.474   0.344   0.386   0.399   0.501   0.349   0.439   0.312   0.448   0.407   0.395   0.336   0.390   0.459   0.435   0.549   0.485   0.406   0.357
    46.00    0.369   0.356   0.479   0.443   0.404   0.414   0.346   0.399   0.398   0.352   0.488   0.511   0.555   0.558   0.366   0.359   0.393   0.532   0.493   0.360   0.383   0.453   0.332   0.389   0.319   0.346   0.430   0.398   0.462   0.565   0.323   0.448   0.429
    41.00    0.461   0.513   0.656   0.694   0.566   0.570   0.486   0.394   0.449   0.371   0.461   0.521   0.589   0.520   0.507   0.469   0.422   0.484   0.467   0.529   0.342   0.379   0.433   0.352   0.503   0.418   0.518   0.379   0.416   0.545   0.391   0.463   0.432
    36.00    0.505   0.428   0.554   0.634   0.448   0.420   0.566   0.559   0.295   0.434   0.496   0.540   0.555   0.356   0.404   0.415   0.416   0.435   0.605   0.700   0.395   0.375   0.392   0.360   0.378   0.562   0.392   0.503   0.328   0.475   0.539   0.420   0.460
    31.00    0.528   0.454   0.448   0.558   0.561   0.379   0.452   0.500   0.340   0.368   0.331   0.482   0.453   0.340   0.337   0.436   0.451   0.486   0.544   0.623   0.603   0.315   0.384   0.340   0.470   0.606   0.519   0.490   0.556   0.451   0.385   0.483   0.449
    26.00    0.524   0.466   0.530   0.592   0.594   0.567   0.334   0.358   0.436   0.416   0.419   0.356   0.359   0.385   0.418   0.455   0.361   0.394   0.459   0.586   0.436   0.501   0.473   0.505   0.493   0.449   0.434   0.372   0.459   0.383   0.452   0.539   0.316
    21.00    0.484   0.377   0.420   0.447   0.452   0.452   0.341   0.344   0.428   0.558   0.317   0.372   0.452   0.378   0.366   0.382   0.345   0.454   0.363   0.570   0.611   0.498   0.379   0.471   0.425   0.488   0.466   0.342   0.448   0.544   0.589   0.425   0.495
    16.00    0.510   0.325   0.400   0.358   0.386   0.379   0.359   0.366   0.449   0.540   0.399   0.434   0.403   0.454   0.491   0.325   0.444   0.436   0.362   0.509   0.569   0.653   0.399   0.327   0.332   0.349   0.388   0.361   0.420   0.432   0.390   0.393   0.464
    11.00    0.522   0.337   0.336   0.344   0.451   0.367   0.481   0.392   0.383   0.440   0.510   0.326   0.399   0.488   0.524   0.325   0.421   0.425   0.396   0.344   0.442   0.492   0.482   0.421   0.426   0.418   0.359   0.423   0.349   0.355   0.401   0.424   0.400
     6.00    0.506   0.541   0.435   0.362   0.398   0.398   0.389   0.344   0.403   0.368   0.455   0.331   0.457   0.404   0.463   0.467   0.349   0.374   0.485   0.453   0.398   0.370   0.322   0.362   0.408   0.342   0.360   0.355   0.405   0.394   0.328   0.414   0.316
     1.00    0.444   0.492   0.367   0.432   0.411   0.452   0.346   0.390   0.423   0.391   0.401   0.380   0.496   0.426   0.509   0.418   0.357   0.358   0.467   0.524   0.390   0.448   0.359   0.464   0.419   0.520   0.360   0.389   0.327   0.400   0.463   0.373   0.400

   Mean standard deviation across all grid points:
      u component:    0.458 m/s
      v component:    0.505 m/s
      w component:    0.435 m/s


U-component (X) statistics from the interpolated hub point:

   Mean =  10.0559 m/s
   TI   =   3.9723 %


Processing complete.  1.7059 CPU seconds used.
