
This summary file was generated by TurbSim (from OpenFAST-v3.4.1-dirty) on 14-Dec-2023 at 13:51:06.


Runtime Options:

   2318573  Random seed #1
    RANLUX  Type of random number generator
         F  Output binary HH turbulence parameters?
         F  Output formatted turbulence parameters?
         F  Output AeroDyn HH files?
         T  Output AeroDyn FF files?
         F  Output BLADED FF files?
         F  Output tower data?
         F  Output HAWC FF files?
         F  Output formatted FF files?
         T  Output coherent turbulence time step file?
 0 -  NONE  IEC turbulence models scaled to exact specified standard deviation


Turbine/Model Specifications:

        35  Vertical grid-point matrix dimension
        33  Horizontal grid-point matrix dimension
     0.300  Time step [seconds]
    10.000  Analysis time [seconds]
    10.000  Usable output time [seconds]
    91.000  Hub height [m]
   170.000  Grid height [m]
   160.000  Grid width [m]
     0.000  Vertical flow angle [degrees]
     0.000  Horizontal flow angle [degrees]


Meteorological Boundary Conditions:

    TIMESR  User-input time series spectral model
       N/A  IEC standard
       N/A  IEC turbulence characteristic
       N/A  IEC turbulence type
       N/A  IEC Extreme Turbulence Model (ETM) "c" parameter [m/s]
       PL   Wind profile type
    88.500  Reference height [m]
    10.000  Reference wind speed [m/s]
       N/A  Jet height [m]
     0.200  Power law exponent
     0.030  Surface roughness length [m]


Non-IEC Meteorological Boundary Conditions:

    45.000  Site latitude [degrees]
     0.050  Gradient Richardson number
     0.481  Friction or shear velocity [m/s]
       N/A  Mixing layer depth [m]
       N/A  Mean hub u'w' Reynolds stress
       N/A  Mean hub u'v' Reynolds stress
       N/A  Mean hub v'w' Reynolds stress


Spatial Coherence Models:

       IEC  u-component coherence model
       IEC  v-component coherence model
       IEC  w-component coherence model
(   12.000, 0.353E-03)  u-component coherence parameters
(   12.000, 0.353E-03)  v-component coherence parameters
(   12.000, 0.353E-03)  w-component coherence parameters
       N/A  Coherence exponent


Coherent Turbulence Scaling Parameters:

.\EventData
            Name of the path containing the coherent turbulence data files
       les  Type of coherent turbulence data files
     1.000  Disturbance scale (ratio of wave height to rotor diameter)
     0.500  Fractional location of tower centerline from right
     0.500  Fractional location of hub height from the bottom of the dataset
    30.000  Minimum start time for coherent structures [seconds]


Profiles from User-Defined Time-Series Input:

  Height   Wind Speed   Horizontal Angle   Vertical Angle
   (m)        (m/s)          (deg)              (deg)    
  ------   ----------   ----------------   --------------
   76.00       9.70          -0.00                0.00


You have requested that the following file(s) be generated:

   ./Test/Cond00_v10.0_PL0.2_TI10/Case0_wdirp00/Seed_0/TurbSim/HighT6.bts (AeroDyn/TurbSim full-field wind file)


Turbulence Simulation Scaling Parameter Summary:

   Turbulence model used                            =  User-input time series
   Gradient Richardson number                       =    0.050
   Monin-Obukhov (M-O) z/L parameter                =    0.067
   Monin-Obukhov (M-O) length scale                 = 1365.000 m
   Mean wind speed at hub height                    =   10.056 m/s

   Wind profile type                                =  Power law
   Power law exponent                               =    0.200
   Mean shear across rotor disk                     =    0.030 (m/s)/m
   Assumed rotor diameter                           =  160.000 m
   Surface roughness length                         =    0.030 m

   Nyquist frequency of turbulent wind field        =    1.667 Hz

   Number of time steps in the FFT                  =       34
   Number of time steps output                      =       34
   Number of points simulated                       =     1156


Mean Flow Angles:

   Vertical   =   0.0 degrees
   Horizontal =   0.0 degrees

Mean Wind Speed Profile:

   Height    Wind Speed   Horizontal Angle  Vertical Angle  U-comp (X)   V-comp (Y)   W-comp (Z)
     (m)        (m/s)         (degrees)       (degrees)       (m/s)        (m/s)        (m/s)   
   ------    ----------   ----------------  --------------  ----------   ----------   ----------
    171.0       11.41            0.00            0.00         11.41         0.00         0.00
    166.0       11.34            0.00            0.00         11.34         0.00         0.00
    161.0       11.27            0.00            0.00         11.27         0.00         0.00
    156.0       11.20            0.00            0.00         11.20         0.00         0.00
    151.0       11.13            0.00            0.00         11.13         0.00         0.00
    146.0       11.05            0.00            0.00         11.05         0.00         0.00
    141.0       10.98            0.00            0.00         10.98         0.00         0.00
    136.0       10.90            0.00            0.00         10.90         0.00         0.00
    131.0       10.82            0.00            0.00         10.82         0.00         0.00
    126.0       10.73            0.00            0.00         10.73         0.00         0.00
    121.0       10.65            0.00            0.00         10.65         0.00         0.00
    116.0       10.56            0.00            0.00         10.56         0.00         0.00
    111.0       10.46            0.00            0.00         10.46         0.00         0.00
    106.0       10.37            0.00            0.00         10.37         0.00         0.00
    101.0       10.27            0.00            0.00         10.27         0.00         0.00
     96.0       10.16            0.00            0.00         10.16         0.00         0.00
     91.0       10.06            0.00            0.00         10.06         0.00         0.00
     86.0        9.94            0.00            0.00          9.94         0.00         0.00
     81.0        9.82            0.00            0.00          9.82         0.00         0.00
     76.0        9.70            0.00            0.00          9.70         0.00         0.00
     71.0        9.57            0.00            0.00          9.57         0.00         0.00
     66.0        9.43            0.00            0.00          9.43         0.00         0.00
     61.0        9.28            0.00            0.00          9.28         0.00         0.00
     56.0        9.13            0.00            0.00          9.13         0.00         0.00
     51.0        8.96            0.00            0.00          8.96         0.00         0.00
     46.0        8.77            0.00            0.00          8.77         0.00         0.00
     41.0        8.57            0.00            0.00          8.57         0.00         0.00
     36.0        8.35            0.00            0.00          8.35         0.00         0.00
     31.0        8.11            0.00            0.00          8.11         0.00         0.00
     26.0        7.83            0.00            0.00          7.83         0.00         0.00
     21.0        7.50            0.00            0.00          7.50         0.00         0.00
     16.0        7.10            0.00            0.00          7.10         0.00         0.00
     11.0        6.59            0.00            0.00          6.59         0.00         0.00
      6.0        5.84            0.00            0.00          5.84         0.00         0.00
      1.0        4.08            0.00            0.00          4.08         0.00         0.00


Harvested Random Seeds after Generation of the Random Numbers:

       547700 K 1
            0 K 2


Hub-Height Simulated Turbulence Statistical Summary:

   Type of Wind        Min (m/s)   Mean (m/s)    Max (m/s)  Sigma (m/s)       TI (%)
   ----------------    ---------   ----------    ---------  -----------       ------
   Longitudinal (u)         9.37        10.06        11.05        0.421        4.190
   Lateral (v)             -0.85        -0.00         1.02        0.486        4.830
   Vertical (w)            -0.74        -0.00         0.97        0.433        4.303
   U component              9.37        10.06        11.05        0.421        4.190
   V component             -0.85        -0.00         1.02        0.486        4.830
   W component             -0.74        -0.00         0.97        0.433        4.303
   Horizontal (U&V)         9.37        10.07        11.05        0.420        4.167
   Total                    9.38        10.08        11.05        0.420        4.166

                       Min Reynolds     Mean Reynolds    Max Reynolds    Correlation
   Product             Stress (m/s)^2   Stress (m/s)^2   Stress (m/s)^2  Coefficient
   ----------------    --------------   --------------   --------------  -----------
   u'w'                     -0.556            -0.064             0.204        -0.351
   u'v'                     -0.477             0.012             0.335         0.058
   v'w'                     -0.537            -0.021             0.332        -0.098


   Friction Velocity (Ustar)  =      0.253 m/s
   Maximum Instantaneous TKE  =      0.677 (m/s)^2
   Maximum Instantaneous CTKE =      0.345 (m/s)^2


Grid Point Variance Summary:

   Y-coord  -80.00  -75.00  -70.00  -65.00  -60.00  -55.00  -50.00  -45.00  -40.00  -35.00  -30.00  -25.00  -20.00  -15.00  -10.00   -5.00    0.00    5.00   10.00   15.00   20.00   25.00   30.00   35.00   40.00   45.00   50.00   55.00   60.00   65.00   70.00   75.00   80.00

   Height   Standard deviation at grid points for the u component:
   171.00    0.400   0.530   0.559   0.695   0.638   0.431   0.523   0.398   0.495   0.392   0.488   0.357   0.316   0.428   0.589   0.372   0.387   0.353   0.526   0.408   0.506   0.362   0.396   0.402   0.463   0.653   0.599   0.618   0.402   0.427   0.478   0.448   0.477
   166.00    0.383   0.468   0.316   0.536   0.574   0.359   0.366   0.446   0.448   0.560   0.330   0.589   0.626   0.308   0.483   0.471   0.429   0.361   0.503   0.405   0.515   0.370   0.336   0.470   0.420   0.516   0.415   0.424   0.395   0.363   0.457   0.369   0.430
   161.00    0.403   0.456   0.379   0.387   0.573   0.387   0.415   0.508   0.621   0.599   0.586   0.493   0.455   0.520   0.425   0.415   0.353   0.547   0.493   0.468   0.455   0.398   0.400   0.495   0.662   0.406   0.487   0.298   0.456   0.491   0.581   0.361   0.447
   156.00    0.345   0.572   0.593   0.600   0.553   0.545   0.635   0.403   0.535   0.409   0.465   0.395   0.339   0.446   0.472   0.454   0.448   0.534   0.456   0.416   0.439   0.298   0.535   0.386   0.606   0.496   0.612   0.386   0.407   0.488   0.496   0.345   0.493
   151.00    0.565   0.540   0.455   0.467   0.390   0.423   0.530   0.406   0.561   0.446   0.330   0.364   0.456   0.489   0.292   0.440   0.315   0.342   0.330   0.473   0.415   0.423   0.617   0.550   0.582   0.469   0.552   0.571   0.459   0.541   0.331   0.402   0.458
   146.00    0.483   0.562   0.602   0.601   0.510   0.461   0.455   0.353   0.352   0.478   0.552   0.424   0.479   0.549   0.567   0.376   0.462   0.410   0.487   0.556   0.434   0.567   0.671   0.556   0.615   0.464   0.511   0.578   0.486   0.421   0.541   0.620   0.595
   141.00    0.429   0.425   0.608   0.633   0.406   0.381   0.413   0.437   0.559   0.351   0.443   0.402   0.426   0.615   0.543   0.352   0.351   0.423   0.331   0.409   0.344   0.540   0.542   0.383   0.395   0.608   0.602   0.390   0.534   0.426   0.524   0.552   0.413
   136.00    0.446   0.465   0.576   0.686   0.462   0.411   0.378   0.515   0.595   0.351   0.495   0.707   0.422   0.477   0.428   0.460   0.459   0.425   0.437   0.407   0.530   0.504   0.431   0.505   0.594   0.626   0.452   0.582   0.392   0.377   0.372   0.446   0.508
   131.00    0.475   0.591   0.637   0.585   0.440   0.561   0.441   0.477   0.482   0.420   0.507   0.601   0.582   0.571   0.316   0.518   0.384   0.452   0.347   0.481   0.438   0.515   0.365   0.497   0.689   0.403   0.573   0.634   0.586   0.578   0.559   0.435   0.370
   126.00    0.309   0.376   0.428   0.401   0.518   0.487   0.404   0.391   0.512   0.549   0.642   0.350   0.426   0.388   0.341   0.391   0.395   0.321   0.487   0.516   0.393   0.403   0.399   0.422   0.554   0.661   0.609   0.588   0.473   0.574   0.618   0.531   0.470
   121.00    0.498   0.476   0.406   0.407   0.452   0.352   0.520   0.413   0.519   0.467   0.541   0.541   0.394   0.411   0.378   0.510   0.518   0.628   0.612   0.304   0.403   0.420   0.563   0.406   0.514   0.472   0.528   0.471   0.497   0.482   0.605   0.568   0.399
   116.00    0.386   0.434   0.415   0.428   0.614   0.536   0.501   0.425   0.597   0.374   0.477   0.332   0.364   0.449   0.387   0.440   0.551   0.650   0.631   0.388   0.354   0.456   0.555   0.448   0.351   0.365   0.371   0.405   0.405   0.516   0.575   0.550   0.570
   111.00    0.507   0.435   0.314   0.585   0.647   0.639   0.378   0.390   0.452   0.591   0.355   0.390   0.375   0.442   0.450   0.570   0.630   0.661   0.516   0.423   0.426   0.373   0.484   0.406   0.502   0.413   0.430   0.309   0.545   0.506   0.406   0.500   0.513
   106.00    0.424   0.461   0.604   0.640   0.440   0.486   0.470   0.546   0.490   0.446   0.414   0.373   0.323   0.457   0.604   0.595   0.690   0.606   0.509   0.495   0.525   0.449   0.369   0.389   0.507   0.398   0.337   0.373   0.454   0.501   0.389   0.395   0.384
   101.00    0.372   0.393   0.441   0.627   0.614   0.552   0.330   0.513   0.564   0.401   0.373   0.471   0.423   0.399   0.508   0.644   0.678   0.462   0.371   0.530   0.481   0.525   0.419   0.518   0.466   0.341   0.423   0.507   0.386   0.388   0.346   0.475   0.567
    96.00    0.415   0.366   0.512   0.569   0.568   0.645   0.456   0.404   0.572   0.368   0.434   0.378   0.530   0.521   0.322   0.428   0.496   0.384   0.347   0.427   0.454   0.360   0.462   0.557   0.402   0.366   0.434   0.530   0.326   0.366   0.482   0.439   0.487
    91.00    0.376   0.362   0.373   0.425   0.347   0.538   0.694   0.514   0.537   0.642   0.658   0.508   0.548   0.406   0.431   0.381   0.421   0.413   0.467   0.610   0.334   0.402   0.421   0.401   0.389   0.365   0.382   0.339   0.502   0.468   0.505   0.377   0.398
    86.00    0.391   0.395   0.416   0.354   0.381   0.493   0.599   0.602   0.401   0.485   0.472   0.332   0.465   0.550   0.257   0.368   0.508   0.576   0.433   0.536   0.378   0.507   0.308   0.385   0.397   0.415   0.395   0.522   0.286   0.508   0.523   0.470   0.563
    81.00    0.406   0.449   0.470   0.314   0.413   0.399   0.491   0.692   0.743   0.708   0.564   0.590   0.481   0.527   0.539   0.400   0.405   0.405   0.372   0.574   0.622   0.394   0.522   0.416   0.446   0.342   0.352   0.493   0.492   0.596   0.577   0.403   0.469
    76.00    0.672   0.342   0.463   0.582   0.559   0.472   0.572   0.572   0.572   0.545   0.487   0.396   0.398   0.354   0.524   0.334   0.379   0.627   0.403   0.362   0.517   0.603   0.401   0.433   0.310   0.461   0.418   0.442   0.386   0.512   0.375   0.365   0.417
    71.00    0.670   0.627   0.350   0.413   0.535   0.524   0.585   0.429   0.369   0.440   0.412   0.482   0.506   0.571   0.511   0.580   0.352   0.628   0.438   0.466   0.360   0.515   0.373   0.373   0.362   0.374   0.365   0.477   0.524   0.450   0.461   0.369   0.379
    66.00    0.609   0.651   0.377   0.381   0.420   0.524   0.549   0.604   0.402   0.453   0.383   0.424   0.440   0.533   0.475   0.466   0.571   0.589   0.624   0.517   0.359   0.390   0.473   0.348   0.461   0.534   0.454   0.455   0.512   0.597   0.674   0.572   0.483
    61.00    0.561   0.627   0.537   0.293   0.396   0.398   0.470   0.409   0.422   0.453   0.509   0.543   0.425   0.539   0.385   0.435   0.383   0.536   0.597   0.311   0.536   0.472   0.408   0.426   0.361   0.421   0.353   0.547   0.654   0.415   0.574   0.519   0.341
    56.00    0.596   0.445   0.551   0.643   0.493   0.334   0.472   0.417   0.329   0.441   0.404   0.354   0.425   0.448   0.440   0.529   0.329   0.438   0.456   0.308   0.375   0.463   0.500   0.380   0.458   0.355   0.494   0.548   0.464   0.437   0.545   0.402   0.394
    51.00    0.435   0.459   0.480   0.471   0.375   0.461   0.422   0.417   0.395   0.355   0.362   0.567   0.630   0.347   0.501   0.595   0.541   0.498   0.418   0.536   0.478   0.439   0.421   0.338   0.374   0.340   0.435   0.579   0.346   0.394   0.532   0.376   0.359
    46.00    0.359   0.406   0.400   0.307   0.411   0.423   0.393   0.459   0.469   0.411   0.442   0.445   0.390   0.551   0.661   0.696   0.373   0.495   0.435   0.587   0.501   0.527   0.621   0.313   0.444   0.532   0.541   0.589   0.359   0.544   0.477   0.372   0.516
    41.00    0.613   0.497   0.353   0.600   0.389   0.296   0.340   0.449   0.364   0.432   0.389   0.460   0.564   0.534   0.582   0.591   0.485   0.458   0.541   0.648   0.498   0.529   0.392   0.412   0.383   0.392   0.479   0.643   0.463   0.542   0.476   0.353   0.407
    36.00    0.571   0.506   0.659   0.624   0.682   0.516   0.440   0.429   0.404   0.387   0.517   0.526   0.409   0.474   0.432   0.443   0.431   0.578   0.643   0.569   0.448   0.555   0.545   0.376   0.329   0.432   0.361   0.507   0.514   0.516   0.370   0.574   0.342
    31.00    0.475   0.473   0.510   0.436   0.476   0.514   0.516   0.397   0.551   0.375   0.464   0.450   0.309   0.417   0.411   0.439   0.451   0.498   0.645   0.716   0.412   0.458   0.416   0.392   0.445   0.490   0.619   0.383   0.487   0.454   0.347   0.477   0.632
    26.00    0.422   0.326   0.410   0.416   0.382   0.385   0.565   0.605   0.680   0.666   0.359   0.353   0.423   0.383   0.370   0.352   0.400   0.344   0.493   0.548   0.492   0.377   0.425   0.467   0.441   0.411   0.524   0.316   0.381   0.408   0.451   0.345   0.545
    21.00    0.472   0.420   0.401   0.496   0.368   0.605   0.500   0.651   0.556   0.558   0.503   0.378   0.510   0.387   0.378   0.353   0.459   0.447   0.531   0.557   0.298   0.411   0.348   0.383   0.326   0.392   0.365   0.514   0.319   0.391   0.425   0.341   0.539
    16.00    0.460   0.337   0.388   0.589   0.608   0.524   0.565   0.634   0.341   0.421   0.402   0.472   0.472   0.353   0.301   0.347   0.548   0.329   0.462   0.490   0.395   0.417   0.440   0.563   0.466   0.479   0.287   0.465   0.498   0.370   0.377   0.278   0.473
    11.00    0.383   0.480   0.447   0.561   0.505   0.415   0.435   0.533   0.471   0.337   0.371   0.372   0.453   0.512   0.452   0.542   0.571   0.493   0.549   0.488   0.404   0.393   0.473   0.440   0.317   0.432   0.670   0.420   0.390   0.441   0.534   0.484   0.471
     6.00    0.485   0.469   0.458   0.487   0.425   0.343   0.480   0.545   0.428   0.333   0.423   0.416   0.444   0.431   0.469   0.612   0.605   0.491   0.591   0.603   0.392   0.429   0.388   0.397   0.453   0.640   0.644   0.564   0.532   0.466   0.498   0.462   0.438
     1.00    0.475   0.553   0.513   0.328   0.377   0.498   0.513   0.545   0.439   0.510   0.441   0.414   0.474   0.457   0.468   0.569   0.558   0.423   0.500   0.579   0.630   0.377   0.420   0.413   0.336   0.438   0.554   0.594   0.442   0.490   0.365   0.436   0.479

   Height   Standard deviation at grid points for the v component:
   171.00    0.579   0.689   0.607   0.626   0.363   0.562   0.564   0.597   0.458   0.494   0.538   0.377   0.530   0.437   0.433   0.491   0.439   0.567   0.520   0.573   0.573   0.430   0.412   0.373   0.454   0.536   0.484   0.497   0.517   0.520   0.462   0.383   0.483
   166.00    0.499   0.409   0.628   0.820   0.509   0.673   0.535   0.506   0.416   0.597   0.346   0.555   0.584   0.380   0.393   0.421   0.352   0.558   0.508   0.662   0.558   0.491   0.553   0.504   0.472   0.543   0.405   0.572   0.375   0.401   0.704   0.822   0.564
   161.00    0.397   0.565   0.597   0.667   0.627   0.674   0.494   0.435   0.505   0.492   0.462   0.452   0.461   0.626   0.742   0.745   0.710   0.762   0.713   0.426   0.589   0.475   0.565   0.683   0.319   0.392   0.592   0.559   0.469   0.602   0.628   0.703   0.648
   156.00    0.446   0.503   0.441   0.493   0.431   0.474   0.493   0.392   0.448   0.395   0.596   0.350   0.727   0.615   0.688   0.549   0.709   0.434   0.461   0.620   0.584   0.684   0.750   0.428   0.479   0.441   0.604   0.561   0.793   0.548   0.596   0.599   0.563
   151.00    0.609   0.428   0.460   0.487   0.488   0.584   0.597   0.410   0.505   0.372   0.515   0.617   0.723   0.957   0.857   0.558   0.747   0.462   0.635   0.435   0.644   0.476   0.625   0.693   0.365   0.440   0.574   0.700   0.733   0.797   0.510   0.477   0.439
   146.00    0.463   0.594   0.379   0.399   0.510   0.555   0.567   0.737   0.455   0.488   0.455   0.623   0.805   0.837   0.779   0.638   0.566   0.621   0.628   0.667   0.612   0.498   0.506   0.496   0.562   0.414   0.440   0.448   0.557   0.418   0.640   0.379   0.454
   141.00    0.586   0.519   0.427   0.535   0.347   0.509   0.433   0.522   0.653   0.386   0.330   0.603   0.630   0.803   0.481   0.533   0.510   0.646   0.474   0.765   0.472   0.457   0.410   0.464   0.377   0.475   0.454   0.418   0.362   0.507   0.542   0.434   0.449
   136.00    0.500   0.612   0.341   0.436   0.460   0.414   0.505   0.409   0.505   0.622   0.381   0.634   0.710   0.809   0.439   0.421   0.483   0.423   0.714   0.829   0.544   0.441   0.482   0.539   0.586   0.498   0.356   0.563   0.489   0.365   0.437   0.656   0.741
   131.00    0.398   0.712   0.764   0.408   0.440   0.422   0.609   0.491   0.492   0.447   0.547   0.625   0.512   0.634   0.590   0.367   0.413   0.427   0.534   0.681   0.720   0.389   0.456   0.427   0.433   0.464   0.435   0.599   0.420   0.689   0.604   0.777   0.576
   126.00    0.571   0.678   0.556   0.492   0.405   0.467   0.493   0.727   0.378   0.432   0.539   0.492   0.464   0.415   0.675   0.393   0.528   0.447   0.389   0.416   0.689   0.683   0.615   0.374   0.450   0.384   0.457   0.467   0.413   0.591   0.661   0.639   0.512
   121.00    0.395   0.510   0.536   0.395   0.561   0.354   0.434   0.530   0.566   0.579   0.503   0.468   0.463   0.734   0.586   0.453   0.575   0.412   0.675   0.741   0.665   0.563   0.610   0.439   0.409   0.473   0.423   0.438   0.506   0.531   0.543   0.512   0.549
   116.00    0.618   0.444   0.509   0.364   0.348   0.456   0.586   0.445   0.532   0.413   0.465   0.549   0.707   0.640   0.492   0.544   0.499   0.442   0.528   0.607   0.402   0.489   0.340   0.480   0.560   0.414   0.593   0.432   0.506   0.512   0.397   0.497   0.376
   111.00    0.595   0.428   0.543   0.438   0.516   0.558   0.493   0.398   0.452   0.526   0.650   0.554   0.572   0.523   0.482   0.470   0.596   0.414   0.564   0.422   0.445   0.390   0.516   0.608   0.323   0.517   0.448   0.394   0.394   0.420   0.448   0.578   0.441
   106.00    0.456   0.469   0.524   0.435   0.556   0.612   0.691   0.654   0.407   0.538   0.545   0.452   0.635   0.389   0.546   0.506   0.566   0.638   0.593   0.564   0.557   0.494   0.651   0.436   0.540   0.654   0.446   0.377   0.513   0.492   0.416   0.460   0.476
   101.00    0.544   0.634   0.654   0.519   0.472   0.754   0.595   0.548   0.369   0.551   0.544   0.508   0.508   0.554   0.484   0.453   0.510   0.582   0.361   0.337   0.498   0.700   0.677   0.479   0.370   0.453   0.530   0.429   0.438   0.462   0.606   0.371   0.507
    96.00    0.376   0.371   0.481   0.442   0.573   0.719   0.768   0.700   0.600   0.579   0.486   0.421   0.633   0.467   0.403   0.448   0.557   0.462   0.586   0.773   0.827   0.634   0.459   0.437   0.444   0.504   0.511   0.472   0.475   0.473   0.599   0.652   0.653
    91.00    0.630   0.732   0.683   0.429   0.606   0.449   0.519   0.529   0.546   0.468   0.728   0.596   0.563   0.803   0.724   0.514   0.486   0.512   0.566   0.544   0.691   0.788   0.589   0.437   0.470   0.658   0.552   0.672   0.485   0.487   0.505   0.478   0.394
    86.00    0.549   0.473   0.564   0.380   0.484   0.548   0.573   0.507   0.530   0.649   0.597   0.836   1.000   0.827   0.704   0.432   0.528   0.497   0.397   0.535   0.445   0.649   0.773   0.346   0.485   0.572   0.621   0.606   0.467   0.404   0.502   0.553   0.612
    81.00    0.419   0.471   0.520   0.439   0.392   0.480   0.564   0.754   0.767   0.458   0.642   0.718   0.825   0.768   0.508   0.518   0.397   0.437   0.388   0.484   0.551   0.422   0.671   0.591   0.628   0.393   0.564   0.542   0.518   0.815   0.951   0.616   0.735
    76.00    0.497   0.443   0.547   0.475   0.425   0.430   0.493   0.618   0.561   0.407   0.474   0.534   0.606   0.536   0.574   0.367   0.461   0.418   0.463   0.494   0.606   0.424   0.492   0.612   0.689   0.341   0.476   0.436   0.405   0.651   0.684   0.675   0.787
    71.00    0.735   0.811   0.486   0.569   0.391   0.527   0.433   0.409   0.567   0.572   0.456   0.356   0.442   0.404   0.504   0.599   0.409   0.487   0.518   0.653   0.461   0.507   0.407   0.443   0.503   0.592   0.419   0.632   0.701   0.399   0.505   0.428   0.539
    66.00    0.707   0.772   0.465   0.436   0.432   0.423   0.559   0.406   0.373   0.462   0.532   0.774   0.455   0.494   0.375   0.506   0.410   0.422   0.492   0.388   0.571   0.419   0.500   0.528   0.451   0.563   0.471   0.499   0.580   0.409   0.501   0.343   0.490
    61.00    0.704   0.848   0.583   0.560   0.431   0.604   0.736   0.505   0.489   0.458   0.565   0.618   0.722   0.393   0.450   0.431   0.441   0.459   0.607   0.577   0.436   0.545   0.412   0.573   0.375   0.466   0.696   0.796   0.784   0.889   0.828   0.565   0.340
    56.00    0.586   0.735   0.548   0.595   0.507   0.414   0.669   0.480   0.417   0.533   0.526   0.470   0.560   0.635   0.375   0.382   0.379   0.681   0.453   0.414   0.530   0.566   0.419   0.475   0.392   0.481   0.682   0.893   1.004   0.962   0.632   0.464   0.477
    51.00    0.490   0.554   0.547   0.495   0.384   0.666   0.803   0.441   0.556   0.400   0.453   0.604   0.397   0.631   0.573   0.598   0.557   0.610   0.668   0.624   0.504   0.447   0.444   0.623   0.405   0.510   0.674   0.713   0.771   0.663   0.592   0.462   0.521
    46.00    0.607   0.499   0.494   0.516   0.495   0.555   0.655   0.455   0.639   0.407   0.504   0.366   0.485   0.579   0.577   0.503   0.472   0.455   0.452   0.454   0.534   0.358   0.553   0.483   0.552   0.677   0.466   0.583   0.687   0.336   0.481   0.474   0.460
    41.00    0.521   0.353   0.533   0.339   0.553   0.484   0.483   0.503   0.750   0.586   0.764   0.371   0.457   0.591   0.341   0.465   0.564   0.451   0.542   0.537   0.519   0.442   0.422   0.450   0.481   0.557   0.656   0.723   0.634   0.495   0.494   0.374   0.606
    36.00    0.649   0.756   0.458   0.526   0.601   0.474   0.446   0.528   0.669   0.746   0.787   0.566   0.544   0.422   0.450   0.500   0.431   0.521   0.344   0.483   0.471   0.406   0.398   0.455   0.649   0.413   0.701   0.722   0.542   0.427   0.365   0.417   0.656
    31.00    0.551   0.487   0.590   0.404   0.607   0.407   0.544   0.422   0.523   0.548   0.539   0.697   0.665   0.730   0.475   0.499   0.467   0.513   0.379   0.425   0.477   0.398   0.515   0.583   0.735   0.629   0.824   0.440   0.480   0.391   0.599   0.761   0.510
    26.00    0.525   0.490   0.537   0.421   0.469   0.522   0.602   0.495   0.455   0.432   0.543   0.568   0.529   0.388   0.521   0.511   0.386   0.509   0.472   0.501   0.419   0.495   0.522   0.368   0.463   0.681   0.732   0.689   0.687   0.596   0.605   0.558   0.621
    21.00    0.500   0.403   0.548   0.397   0.461   0.489   0.509   0.451   0.415   0.518   0.462   0.509   0.544   0.484   0.538   0.462   0.539   0.412   0.499   0.423   0.489   0.346   0.518   0.415   0.509   0.464   0.538   0.586   0.579   0.668   0.427   0.412   0.520
    16.00    0.421   0.488   0.538   0.532   0.430   0.458   0.397   0.451   0.571   0.703   0.580   0.481   0.545   0.344   0.343   0.456   0.472   0.652   0.418   0.477   0.427   0.549   0.412   0.493   0.395   0.500   0.363   0.648   0.423   0.617   0.459   0.564   0.400
    11.00    0.444   0.388   0.391   0.602   0.795   0.816   0.715   0.420   0.804   0.738   0.666   0.558   0.574   0.714   0.448   0.699   0.636   0.562   0.414   0.542   0.506   0.449   0.475   0.607   0.369   0.422   0.516   0.688   0.635   0.582   0.647   0.484   0.358
     6.00    0.445   0.570   0.698   0.796   0.790   0.690   0.754   0.777   0.844   0.719   0.589   0.593   0.420   0.515   0.672   0.705   0.516   0.526   0.482   0.497   0.355   0.478   0.566   0.449   0.502   0.472   0.539   0.579   0.493   0.539   0.744   0.714   0.572
     1.00    0.555   0.493   0.605   0.672   0.680   0.486   0.499   0.611   0.476   0.584   0.703   0.410   0.496   0.535   0.474   0.633   0.660   0.694   0.480   0.451   0.584   0.515   0.637   0.373   0.502   0.420   0.511   0.633   0.394   0.512   0.627   0.679   0.745

   Height   Standard deviation at grid points for the w component:
   171.00    0.374   0.372   0.343   0.335   0.386   0.394   0.404   0.352   0.392   0.340   0.379   0.366   0.330   0.322   0.429   0.374   0.520   0.380   0.363   0.347   0.401   0.423   0.372   0.336   0.384   0.425   0.423   0.474   0.434   0.438   0.343   0.356   0.340
   166.00    0.364   0.365   0.405   0.418   0.434   0.495   0.499   0.359   0.461   0.421   0.420   0.328   0.391   0.372   0.370   0.379   0.418   0.417   0.308   0.389   0.372   0.494   0.467   0.386   0.327   0.355   0.397   0.384   0.422   0.418   0.343   0.373   0.364
   161.00    0.458   0.491   0.452   0.382   0.318   0.350   0.360   0.413   0.449   0.451   0.325   0.339   0.402   0.339   0.382   0.335   0.394   0.465   0.407   0.411   0.463   0.496   0.411   0.431   0.427   0.403   0.443   0.445   0.298   0.328   0.377   0.420   0.335
   156.00    0.389   0.449   0.319   0.404   0.445   0.407   0.423   0.339   0.366   0.317   0.372   0.375   0.357   0.349   0.392   0.448   0.430   0.390   0.349   0.416   0.465   0.379   0.365   0.413   0.417   0.419   0.451   0.438   0.412   0.419   0.511   0.357   0.411
   151.00    0.387   0.404   0.341   0.479   0.483   0.332   0.387   0.364   0.364   0.362   0.399   0.339   0.389   0.345   0.403   0.426   0.389   0.358   0.386   0.367   0.334   0.388   0.350   0.390   0.366   0.445   0.484   0.325   0.391   0.406   0.495   0.436   0.430
   146.00    0.508   0.538   0.346   0.491   0.448   0.381   0.380   0.381   0.365   0.360   0.405   0.400   0.407   0.408   0.335   0.432   0.458   0.402   0.350   0.408   0.427   0.330   0.358   0.380   0.377   0.429   0.417   0.381   0.361   0.392   0.440   0.396   0.430
   141.00    0.476   0.537   0.473   0.499   0.475   0.432   0.445   0.356   0.416   0.415   0.352   0.329   0.370   0.367   0.402   0.402   0.372   0.357   0.337   0.431   0.385   0.435   0.335   0.309   0.421   0.423   0.319   0.388   0.371   0.332   0.363   0.371   0.476
   136.00    0.423   0.461   0.451   0.365   0.368   0.381   0.406   0.413   0.369   0.405   0.422   0.367   0.332   0.437   0.394   0.379   0.421   0.445   0.316   0.404   0.379   0.413   0.346   0.378   0.446   0.522   0.437   0.464   0.533   0.460   0.401   0.503   0.456
   131.00    0.433   0.425   0.524   0.402   0.436   0.323   0.336   0.310   0.372   0.375   0.391   0.329   0.342   0.416   0.449   0.436   0.378   0.383   0.442   0.417   0.365   0.314   0.344   0.359   0.405   0.474   0.418   0.397   0.449   0.471   0.456   0.382   0.513
   126.00    0.357   0.448   0.447   0.450   0.444   0.417   0.343   0.431   0.470   0.332   0.378   0.384   0.449   0.350   0.402   0.398   0.434   0.364   0.385   0.340   0.397   0.419   0.376   0.315   0.369   0.351   0.454   0.486   0.337   0.380   0.357   0.413   0.482
   121.00    0.384   0.417   0.313   0.422   0.359   0.390   0.335   0.406   0.366   0.336   0.353   0.409   0.341   0.430   0.447   0.430   0.499   0.305   0.425   0.415   0.410   0.363   0.366   0.371   0.337   0.363   0.349   0.405   0.437   0.390   0.386   0.384   0.452
   116.00    0.325   0.335   0.385   0.432   0.403   0.325   0.330   0.385   0.470   0.314   0.432   0.354   0.395   0.305   0.370   0.473   0.570   0.355   0.453   0.327   0.325   0.370   0.340   0.318   0.449   0.465   0.460   0.348   0.399   0.393   0.347   0.351   0.394
   111.00    0.484   0.376   0.351   0.359   0.371   0.333   0.494   0.572   0.533   0.362   0.459   0.352   0.387   0.353   0.318   0.436   0.475   0.581   0.479   0.497   0.313   0.336   0.459   0.431   0.461   0.439   0.348   0.403   0.329   0.391   0.367   0.348   0.366
   106.00    0.454   0.342   0.379   0.463   0.499   0.514   0.471   0.540   0.397   0.329   0.370   0.405   0.452   0.353   0.382   0.429   0.510   0.632   0.505   0.488   0.467   0.471   0.587   0.634   0.369   0.338   0.352   0.362   0.354   0.392   0.363   0.335   0.313
   101.00    0.379   0.417   0.473   0.455   0.412   0.386   0.478   0.440   0.550   0.449   0.292   0.366   0.468   0.493   0.330   0.374   0.454   0.511   0.529   0.475   0.416   0.468   0.491   0.537   0.538   0.370   0.335   0.361   0.322   0.370   0.398   0.461   0.419
    96.00    0.385   0.323   0.426   0.453   0.438   0.382   0.475   0.487   0.531   0.535   0.533   0.385   0.444   0.485   0.432   0.372   0.410   0.429   0.442   0.344   0.407   0.369   0.390   0.398   0.443   0.399   0.387   0.376   0.331   0.346   0.362   0.505   0.551
    91.00    0.504   0.365   0.332   0.433   0.396   0.392   0.377   0.404   0.480   0.420   0.460   0.424   0.412   0.410   0.448   0.437   0.433   0.389   0.393   0.375   0.349   0.350   0.387   0.348   0.409   0.455   0.373   0.421   0.465   0.351   0.350   0.449   0.501
    86.00    0.448   0.430   0.432   0.382   0.379   0.503   0.554   0.359   0.432   0.386   0.422   0.305   0.416   0.335   0.433   0.365   0.372   0.329   0.415   0.345   0.384   0.421   0.393   0.382   0.360   0.398   0.338   0.393   0.421   0.302   0.362   0.383   0.439
    81.00    0.363   0.381   0.300   0.352   0.419   0.496   0.485   0.294   0.423   0.445   0.401   0.381   0.450   0.296   0.358   0.449   0.387   0.423   0.379   0.427   0.488   0.367   0.423   0.387   0.371   0.422   0.333   0.359   0.292   0.369   0.358   0.410   0.371
    76.00    0.391   0.345   0.418   0.414   0.351   0.367   0.388   0.408   0.327   0.398   0.385   0.403   0.425   0.313   0.325   0.433   0.392   0.457   0.441   0.472   0.389   0.358   0.328   0.334   0.357   0.342   0.365   0.429   0.403   0.344   0.418   0.313   0.382
    71.00    0.518   0.419   0.487   0.440   0.498   0.462   0.363   0.454   0.456   0.314   0.349   0.368   0.447   0.352   0.426   0.402   0.391   0.416   0.344   0.414   0.325   0.474   0.430   0.489   0.343   0.357   0.360   0.358   0.396   0.427   0.456   0.351   0.411
    66.00    0.515   0.517   0.316   0.458   0.529   0.355   0.362   0.348   0.415   0.434   0.369   0.392   0.397   0.416   0.346   0.434   0.430   0.417   0.548   0.547   0.408   0.534   0.441   0.497   0.476   0.337   0.351   0.464   0.403   0.318   0.437   0.542   0.485
    61.00    0.449   0.466   0.481   0.470   0.485   0.400   0.330   0.446   0.408   0.331   0.426   0.486   0.414   0.322   0.378   0.443   0.366   0.464   0.505   0.508   0.384   0.465   0.477   0.498   0.358   0.381   0.438   0.466   0.298   0.376   0.361   0.405   0.470
    56.00    0.511   0.351   0.475   0.564   0.405   0.320   0.339   0.450   0.442   0.369   0.357   0.375   0.433   0.376   0.437   0.415   0.315   0.397   0.381   0.407   0.425   0.448   0.433   0.392   0.426   0.400   0.368   0.378   0.466   0.391   0.368   0.379   0.371
    51.00    0.406   0.493   0.418   0.501   0.470   0.356   0.437   0.423   0.414   0.393   0.340   0.386   0.449   0.453   0.434   0.339   0.378   0.386   0.449   0.344   0.418   0.305   0.411   0.398   0.379   0.326   0.382   0.423   0.407   0.479   0.435   0.381   0.351
    46.00    0.363   0.353   0.433   0.398   0.384   0.403   0.332   0.377   0.375   0.349   0.442   0.462   0.493   0.486   0.360   0.349   0.369   0.471   0.448   0.339   0.368   0.419   0.320   0.370   0.316   0.331   0.395   0.375   0.413   0.497   0.313   0.418   0.397
    41.00    0.419   0.458   0.562   0.597   0.509   0.517   0.441   0.386   0.421   0.346   0.415   0.471   0.513   0.461   0.467   0.429   0.381   0.438   0.433   0.468   0.336   0.355   0.403   0.329   0.453   0.382   0.462   0.370   0.390   0.487   0.381   0.428   0.406
    36.00    0.446   0.398   0.489   0.542   0.419   0.409   0.517   0.500   0.293   0.402   0.456   0.472   0.486   0.337   0.373   0.381   0.377   0.397   0.530   0.609   0.375   0.363   0.383   0.345   0.356   0.489   0.373   0.459   0.323   0.431   0.479   0.390   0.427
    31.00    0.467   0.425   0.414   0.486   0.490   0.374   0.429   0.464   0.332   0.351   0.323   0.444   0.404   0.331   0.328   0.402   0.424   0.450   0.491   0.544   0.532   0.311   0.365   0.324   0.421   0.525   0.457   0.438   0.489   0.407   0.356   0.439   0.419
    26.00    0.468   0.413   0.476   0.519   0.521   0.495   0.331   0.354   0.400   0.393   0.401   0.345   0.344   0.366   0.397   0.428   0.350   0.379   0.432   0.516   0.422   0.451   0.430   0.467   0.444   0.402   0.400   0.362   0.413   0.373   0.439   0.492   0.304
    21.00    0.429   0.369   0.397   0.413   0.409   0.409   0.329   0.338   0.385   0.491   0.316   0.355   0.403   0.370   0.349   0.363   0.336   0.420   0.350   0.509   0.534   0.457   0.359   0.439   0.412   0.463   0.429   0.341   0.428   0.492   0.520   0.401   0.449
    16.00    0.459   0.318   0.375   0.341   0.362   0.362   0.355   0.345   0.418   0.484   0.391   0.410   0.388   0.428   0.445   0.318   0.412   0.398   0.348   0.461   0.492   0.569   0.390   0.318   0.322   0.339   0.372   0.339   0.401   0.410   0.362   0.369   0.423
    11.00    0.461   0.331   0.322   0.330   0.416   0.360   0.448   0.380   0.379   0.406   0.474   0.322   0.390   0.458   0.465   0.323   0.403   0.405   0.373   0.331   0.412   0.442   0.436   0.394   0.392   0.387   0.349   0.389   0.341   0.333   0.389   0.409   0.386
     6.00    0.454   0.488   0.415   0.354   0.386   0.384   0.375   0.326   0.378   0.349   0.418   0.330   0.410   0.376   0.434   0.427   0.341   0.354   0.452   0.406   0.380   0.348   0.318   0.352   0.399   0.321   0.350   0.344   0.380   0.382   0.319   0.386   0.313
     1.00    0.410   0.450   0.363   0.405   0.393   0.408   0.339   0.365   0.394   0.370   0.376   0.355   0.449   0.405   0.463   0.383   0.348   0.344   0.432   0.470   0.383   0.411   0.341   0.428   0.392   0.469   0.357   0.368   0.319   0.380   0.432   0.364   0.366

   Mean standard deviation across all grid points:
      u component:    0.466 m/s
      v component:    0.532 m/s
      w component:    0.404 m/s


U-component (X) statistics from the interpolated hub point:

   Mean =  10.0559 m/s
   TI   =   4.1904 %


Processing complete.  1.696 CPU seconds used.
