
This summary file was generated by TurbSim (from OpenFAST-v3.4.1-dirty) on 14-Dec-2023 at 13:51:09.


Runtime Options:

   2318573  Random seed #1
    RANLUX  Type of random number generator
         F  Output binary HH turbulence parameters?
         F  Output formatted turbulence parameters?
         F  Output AeroDyn HH files?
         T  Output AeroDyn FF files?
         F  Output BLADED FF files?
         F  Output tower data?
         F  Output HAWC FF files?
         F  Output formatted FF files?
         T  Output coherent turbulence time step file?
 0 -  NONE  IEC turbulence models scaled to exact specified standard deviation


Turbine/Model Specifications:

        35  Vertical grid-point matrix dimension
        33  Horizontal grid-point matrix dimension
     0.300  Time step [seconds]
    10.000  Analysis time [seconds]
    10.000  Usable output time [seconds]
    91.000  Hub height [m]
   170.000  Grid height [m]
   160.000  Grid width [m]
     0.000  Vertical flow angle [degrees]
     0.000  Horizontal flow angle [degrees]


Meteorological Boundary Conditions:

    TIMESR  User-input time series spectral model
       N/A  IEC standard
       N/A  IEC turbulence characteristic
       N/A  IEC turbulence type
       N/A  IEC Extreme Turbulence Model (ETM) "c" parameter [m/s]
       PL   Wind profile type
    88.500  Reference height [m]
    10.000  Reference wind speed [m/s]
       N/A  Jet height [m]
     0.200  Power law exponent
     0.030  Surface roughness length [m]


Non-IEC Meteorological Boundary Conditions:

    45.000  Site latitude [degrees]
     0.050  Gradient Richardson number
     0.481  Friction or shear velocity [m/s]
       N/A  Mixing layer depth [m]
       N/A  Mean hub u'w' Reynolds stress
       N/A  Mean hub u'v' Reynolds stress
       N/A  Mean hub v'w' Reynolds stress


Spatial Coherence Models:

       IEC  u-component coherence model
       IEC  v-component coherence model
       IEC  w-component coherence model
(   12.000, 0.353E-03)  u-component coherence parameters
(   12.000, 0.353E-03)  v-component coherence parameters
(   12.000, 0.353E-03)  w-component coherence parameters
       N/A  Coherence exponent


Coherent Turbulence Scaling Parameters:

.\EventData
            Name of the path containing the coherent turbulence data files
       les  Type of coherent turbulence data files
     1.000  Disturbance scale (ratio of wave height to rotor diameter)
     0.500  Fractional location of tower centerline from right
     0.500  Fractional location of hub height from the bottom of the dataset
    30.000  Minimum start time for coherent structures [seconds]


Profiles from User-Defined Time-Series Input:

  Height   Wind Speed   Horizontal Angle   Vertical Angle
   (m)        (m/s)          (deg)              (deg)    
  ------   ----------   ----------------   --------------
   76.00       9.70           0.00                0.00


You have requested that the following file(s) be generated:

   ./Test/Cond00_v10.0_PL0.2_TI10/Case0_wdirp00/Seed_0/TurbSim/HighT8.bts (AeroDyn/TurbSim full-field wind file)


Turbulence Simulation Scaling Parameter Summary:

   Turbulence model used                            =  User-input time series
   Gradient Richardson number                       =    0.050
   Monin-Obukhov (M-O) z/L parameter                =    0.067
   Monin-Obukhov (M-O) length scale                 = 1365.000 m
   Mean wind speed at hub height                    =   10.056 m/s

   Wind profile type                                =  Power law
   Power law exponent                               =    0.200
   Mean shear across rotor disk                     =    0.030 (m/s)/m
   Assumed rotor diameter                           =  160.000 m
   Surface roughness length                         =    0.030 m

   Nyquist frequency of turbulent wind field        =    1.667 Hz

   Number of time steps in the FFT                  =       34
   Number of time steps output                      =       34
   Number of points simulated                       =     1156


Mean Flow Angles:

   Vertical   =   0.0 degrees
   Horizontal =   0.0 degrees

Mean Wind Speed Profile:

   Height    Wind Speed   Horizontal Angle  Vertical Angle  U-comp (X)   V-comp (Y)   W-comp (Z)
     (m)        (m/s)         (degrees)       (degrees)       (m/s)        (m/s)        (m/s)   
   ------    ----------   ----------------  --------------  ----------   ----------   ----------
    171.0       11.41            0.00            0.00         11.41         0.00         0.00
    166.0       11.34            0.00            0.00         11.34         0.00         0.00
    161.0       11.27            0.00            0.00         11.27         0.00         0.00
    156.0       11.20            0.00            0.00         11.20         0.00         0.00
    151.0       11.13            0.00            0.00         11.13         0.00         0.00
    146.0       11.05            0.00            0.00         11.05         0.00         0.00
    141.0       10.98            0.00            0.00         10.98         0.00         0.00
    136.0       10.90            0.00            0.00         10.90         0.00         0.00
    131.0       10.82            0.00            0.00         10.82         0.00         0.00
    126.0       10.73            0.00            0.00         10.73         0.00         0.00
    121.0       10.65            0.00            0.00         10.65         0.00         0.00
    116.0       10.56            0.00            0.00         10.56         0.00         0.00
    111.0       10.46            0.00            0.00         10.46         0.00         0.00
    106.0       10.37            0.00            0.00         10.37         0.00         0.00
    101.0       10.27            0.00            0.00         10.27         0.00         0.00
     96.0       10.16            0.00            0.00         10.16         0.00         0.00
     91.0       10.06            0.00            0.00         10.06         0.00         0.00
     86.0        9.94            0.00            0.00          9.94         0.00         0.00
     81.0        9.82            0.00            0.00          9.82         0.00         0.00
     76.0        9.70            0.00            0.00          9.70         0.00         0.00
     71.0        9.57            0.00            0.00          9.57         0.00         0.00
     66.0        9.43            0.00            0.00          9.43         0.00         0.00
     61.0        9.28            0.00            0.00          9.28         0.00         0.00
     56.0        9.13            0.00            0.00          9.13         0.00         0.00
     51.0        8.96            0.00            0.00          8.96         0.00         0.00
     46.0        8.77            0.00            0.00          8.77         0.00         0.00
     41.0        8.57            0.00            0.00          8.57         0.00         0.00
     36.0        8.35            0.00            0.00          8.35         0.00         0.00
     31.0        8.11            0.00            0.00          8.11         0.00         0.00
     26.0        7.83            0.00            0.00          7.83         0.00         0.00
     21.0        7.50            0.00            0.00          7.50         0.00         0.00
     16.0        7.10            0.00            0.00          7.10         0.00         0.00
     11.0        6.59            0.00            0.00          6.59         0.00         0.00
      6.0        5.84            0.00            0.00          5.84         0.00         0.00
      1.0        4.08            0.00            0.00          4.08         0.00         0.00


Harvested Random Seeds after Generation of the Random Numbers:

       547700 K 1
            0 K 2


Hub-Height Simulated Turbulence Statistical Summary:

   Type of Wind        Min (m/s)   Mean (m/s)    Max (m/s)  Sigma (m/s)       TI (%)
   ----------------    ---------   ----------    ---------  -----------       ------
   Longitudinal (u)         9.26        10.06        10.89        0.398        3.954
   Lateral (v)             -0.74         0.00         0.89        0.443        4.409
   Vertical (w)            -0.77         0.00         1.01        0.454        4.515
   U component              9.26        10.06        10.89        0.398        3.954
   V component             -0.74         0.00         0.89        0.443        4.409
   W component             -0.77         0.00         1.01        0.454        4.515
   Horizontal (U&V)         9.26        10.07        10.90        0.397        3.941
   Total                    9.26        10.08        10.90        0.397        3.942

                       Min Reynolds     Mean Reynolds    Max Reynolds    Correlation
   Product             Stress (m/s)^2   Stress (m/s)^2   Stress (m/s)^2  Coefficient
   ----------------    --------------   --------------   --------------  -----------
   u'w'                     -0.424            -0.070             0.274        -0.386
   u'v'                     -0.336             0.007             0.281         0.040
   v'w'                     -0.462             0.003             0.375         0.014


   Friction Velocity (Ustar)  =      0.264 m/s
   Maximum Instantaneous TKE  =      0.640 (m/s)^2
   Maximum Instantaneous CTKE =      0.299 (m/s)^2


Grid Point Variance Summary:

   Y-coord  -80.00  -75.00  -70.00  -65.00  -60.00  -55.00  -50.00  -45.00  -40.00  -35.00  -30.00  -25.00  -20.00  -15.00  -10.00   -5.00    0.00    5.00   10.00   15.00   20.00   25.00   30.00   35.00   40.00   45.00   50.00   55.00   60.00   65.00   70.00   75.00   80.00

   Height   Standard deviation at grid points for the u component:
   171.00    0.393   0.515   0.543   0.676   0.618   0.422   0.510   0.397   0.485   0.391   0.476   0.355   0.316   0.419   0.573   0.367   0.382   0.351   0.515   0.403   0.492   0.358   0.388   0.396   0.454   0.635   0.582   0.599   0.399   0.419   0.466   0.443   0.471
   166.00    0.382   0.459   0.315   0.523   0.560   0.358   0.363   0.437   0.441   0.548   0.325   0.573   0.605   0.306   0.472   0.462   0.423   0.355   0.493   0.401   0.502   0.368   0.334   0.460   0.413   0.503   0.407   0.417   0.389   0.361   0.446   0.367   0.424
   161.00    0.395   0.450   0.377   0.379   0.558   0.381   0.407   0.493   0.600   0.580   0.568   0.480   0.446   0.508   0.422   0.408   0.350   0.534   0.485   0.460   0.444   0.391   0.395   0.480   0.641   0.399   0.476   0.296   0.445   0.478   0.566   0.358   0.437
   156.00    0.344   0.557   0.574   0.581   0.539   0.529   0.617   0.401   0.521   0.402   0.458   0.391   0.334   0.439   0.464   0.448   0.444   0.523   0.451   0.411   0.431   0.296   0.520   0.381   0.590   0.481   0.594   0.383   0.401   0.474   0.485   0.340   0.481
   151.00    0.549   0.524   0.444   0.457   0.389   0.414   0.516   0.400   0.545   0.438   0.328   0.362   0.450   0.481   0.291   0.430   0.312   0.341   0.328   0.463   0.409   0.417   0.598   0.536   0.563   0.460   0.539   0.552   0.449   0.528   0.327   0.396   0.450
   146.00    0.470   0.546   0.582   0.583   0.496   0.454   0.445   0.349   0.347   0.466   0.537   0.415   0.470   0.533   0.550   0.372   0.454   0.401   0.474   0.542   0.430   0.550   0.648   0.539   0.596   0.455   0.501   0.563   0.475   0.411   0.529   0.605   0.581
   141.00    0.422   0.419   0.590   0.613   0.403   0.379   0.407   0.434   0.546   0.349   0.435   0.396   0.417   0.596   0.527   0.350   0.347   0.414   0.330   0.400   0.342   0.528   0.526   0.378   0.388   0.589   0.583   0.384   0.519   0.417   0.511   0.537   0.407
   136.00    0.436   0.455   0.558   0.664   0.455   0.402   0.375   0.502   0.578   0.348   0.483   0.683   0.416   0.465   0.418   0.453   0.454   0.416   0.429   0.400   0.514   0.492   0.427   0.494   0.575   0.605   0.442   0.567   0.387   0.374   0.367   0.434   0.495
   131.00    0.466   0.577   0.619   0.570   0.433   0.549   0.428   0.468   0.475   0.411   0.494   0.584   0.563   0.554   0.314   0.505   0.381   0.443   0.345   0.467   0.428   0.501   0.364   0.483   0.665   0.396   0.559   0.615   0.568   0.563   0.544   0.426   0.368
   126.00    0.309   0.372   0.422   0.397   0.508   0.479   0.397   0.388   0.501   0.532   0.622   0.345   0.418   0.382   0.338   0.384   0.389   0.321   0.474   0.502   0.386   0.396   0.391   0.412   0.537   0.639   0.591   0.571   0.465   0.557   0.598   0.517   0.459
   121.00    0.486   0.463   0.397   0.403   0.445   0.350   0.509   0.409   0.505   0.457   0.527   0.529   0.392   0.406   0.371   0.502   0.509   0.606   0.591   0.302   0.397   0.414   0.548   0.405   0.503   0.460   0.515   0.460   0.486   0.471   0.589   0.550   0.392
   116.00    0.379   0.426   0.412   0.424   0.598   0.519   0.489   0.418   0.579   0.371   0.468   0.329   0.362   0.441   0.386   0.439   0.539   0.627   0.604   0.384   0.352   0.446   0.539   0.439   0.347   0.359   0.367   0.397   0.396   0.504   0.564   0.533   0.555
   111.00    0.495   0.431   0.312   0.568   0.628   0.621   0.375   0.386   0.443   0.573   0.352   0.383   0.372   0.427   0.437   0.549   0.602   0.629   0.496   0.405   0.417   0.368   0.475   0.400   0.491   0.407   0.420   0.307   0.531   0.495   0.404   0.494   0.504
   106.00    0.418   0.449   0.585   0.622   0.430   0.476   0.458   0.531   0.479   0.439   0.407   0.365   0.322   0.437   0.572   0.559   0.646   0.568   0.482   0.473   0.499   0.433   0.369   0.386   0.501   0.395   0.335   0.369   0.447   0.493   0.385   0.391   0.382
   101.00    0.369   0.385   0.432   0.610   0.593   0.537   0.329   0.499   0.553   0.393   0.371   0.465   0.416   0.387   0.476   0.595   0.621   0.448   0.382   0.506   0.448   0.499   0.413   0.508   0.461   0.339   0.418   0.492   0.382   0.384   0.342   0.464   0.551
    96.00    0.410   0.359   0.501   0.557   0.552   0.626   0.448   0.398   0.557   0.364   0.428   0.379   0.520   0.530   0.311   0.384   0.430   0.359   0.380   0.394   0.415   0.346   0.466   0.551   0.399   0.362   0.425   0.514   0.326   0.361   0.469   0.430   0.475
    91.00    0.373   0.358   0.370   0.416   0.346   0.522   0.673   0.504   0.520   0.619   0.633   0.502   0.530   0.421   0.461   0.371   0.398   0.458   0.449   0.606   0.320   0.421   0.429   0.403   0.384   0.364   0.378   0.334   0.489   0.459   0.494   0.373   0.395
    86.00    0.384   0.388   0.409   0.351   0.378   0.480   0.581   0.584   0.391   0.470   0.457   0.328   0.457   0.549   0.269   0.395   0.611   0.741   0.562   0.579   0.377   0.527   0.305   0.373   0.385   0.409   0.387   0.513   0.286   0.494   0.511   0.459   0.545
    81.00    0.403   0.440   0.463   0.312   0.405   0.392   0.478   0.670   0.716   0.680   0.537   0.559   0.446   0.476   0.458   0.426   0.486   0.585   0.619   0.738   0.680   0.396   0.536   0.414   0.446   0.342   0.349   0.486   0.480   0.581   0.562   0.397   0.459
    76.00    0.651   0.340   0.454   0.568   0.544   0.460   0.560   0.553   0.553   0.524   0.474   0.386   0.407   0.321   0.482   0.454   0.585   0.354   0.552   0.522   0.621   0.634   0.426   0.413   0.315   0.455   0.413   0.435   0.384   0.504   0.371   0.359   0.409
    71.00    0.648   0.608   0.348   0.406   0.521   0.510   0.568   0.424   0.362   0.430   0.397   0.479   0.497   0.540   0.536   0.624   0.457   0.390   0.392   0.338   0.440   0.568   0.377   0.354   0.362   0.371   0.362   0.469   0.516   0.449   0.455   0.364   0.375
    66.00    0.590   0.629   0.374   0.374   0.412   0.509   0.532   0.585   0.392   0.440   0.382   0.426   0.450   0.523   0.483   0.452   0.466   0.454   0.479   0.412   0.338   0.425   0.490   0.346   0.456   0.522   0.448   0.451   0.506   0.582   0.655   0.554   0.471
    61.00    0.546   0.610   0.526   0.292   0.394   0.392   0.465   0.398   0.415   0.442   0.494   0.532   0.415   0.524   0.399   0.386   0.344   0.446   0.504   0.329   0.503   0.477   0.393   0.427   0.360   0.418   0.351   0.533   0.636   0.409   0.561   0.506   0.339
    56.00    0.580   0.437   0.535   0.623   0.482   0.331   0.463   0.414   0.326   0.431   0.398   0.352   0.418   0.444   0.422   0.504   0.323   0.399   0.437   0.312   0.355   0.452   0.483   0.381   0.445   0.354   0.480   0.532   0.453   0.430   0.533   0.396   0.390
    51.00    0.428   0.452   0.468   0.460   0.370   0.454   0.417   0.413   0.390   0.351   0.357   0.550   0.605   0.340   0.474   0.575   0.529   0.476   0.426   0.518   0.459   0.441   0.421   0.335   0.368   0.338   0.423   0.561   0.345   0.386   0.519   0.370   0.355
    46.00    0.357   0.398   0.397   0.306   0.403   0.414   0.388   0.453   0.459   0.406   0.433   0.435   0.382   0.533   0.632   0.668   0.368   0.471   0.426   0.561   0.490   0.518   0.606   0.313   0.436   0.518   0.527   0.573   0.357   0.532   0.467   0.367   0.501
    41.00    0.594   0.486   0.350   0.581   0.384   0.296   0.338   0.440   0.362   0.429   0.387   0.446   0.546   0.517   0.560   0.573   0.468   0.441   0.521   0.625   0.488   0.511   0.384   0.407   0.380   0.384   0.467   0.623   0.450   0.527   0.467   0.350   0.398
    36.00    0.554   0.491   0.638   0.604   0.659   0.505   0.435   0.419   0.398   0.384   0.504   0.512   0.403   0.465   0.419   0.437   0.424   0.561   0.617   0.550   0.441   0.541   0.532   0.372   0.327   0.424   0.359   0.496   0.504   0.500   0.368   0.557   0.338
    31.00    0.465   0.463   0.498   0.429   0.463   0.503   0.507   0.391   0.536   0.368   0.453   0.441   0.306   0.408   0.404   0.429   0.443   0.484   0.624   0.691   0.404   0.451   0.411   0.387   0.437   0.476   0.601   0.376   0.476   0.447   0.346   0.466   0.612
    26.00    0.416   0.324   0.406   0.409   0.375   0.383   0.553   0.592   0.657   0.643   0.355   0.351   0.416   0.378   0.367   0.348   0.396   0.338   0.480   0.531   0.478   0.374   0.417   0.460   0.436   0.407   0.512   0.313   0.376   0.401   0.441   0.342   0.529
    21.00    0.461   0.414   0.394   0.485   0.364   0.589   0.492   0.633   0.542   0.543   0.490   0.370   0.496   0.384   0.374   0.347   0.448   0.437   0.515   0.540   0.297   0.405   0.347   0.377   0.325   0.387   0.360   0.500   0.318   0.386   0.419   0.337   0.528
    16.00    0.454   0.333   0.386   0.575   0.589   0.511   0.551   0.614   0.336   0.415   0.395   0.464   0.459   0.349   0.300   0.346   0.536   0.324   0.451   0.477   0.390   0.412   0.429   0.546   0.455   0.468   0.286   0.456   0.489   0.367   0.373   0.278   0.462
    11.00    0.381   0.472   0.440   0.546   0.491   0.407   0.426   0.521   0.460   0.334   0.366   0.369   0.445   0.503   0.448   0.530   0.557   0.484   0.534   0.476   0.402   0.386   0.464   0.435   0.314   0.422   0.650   0.414   0.389   0.434   0.518   0.474   0.461
     6.00    0.476   0.460   0.450   0.476   0.420   0.342   0.469   0.533   0.418   0.332   0.416   0.411   0.434   0.425   0.462   0.596   0.588   0.477   0.573   0.586   0.390   0.420   0.386   0.393   0.444   0.622   0.627   0.550   0.517   0.456   0.488   0.454   0.431
     1.00    0.465   0.537   0.500   0.326   0.372   0.485   0.500   0.532   0.433   0.497   0.434   0.405   0.464   0.447   0.458   0.554   0.542   0.418   0.486   0.562   0.612   0.376   0.412   0.405   0.333   0.428   0.540   0.578   0.437   0.479   0.361   0.427   0.467

   Height   Standard deviation at grid points for the v component:
   171.00    0.576   0.686   0.604   0.623   0.362   0.560   0.562   0.595   0.457   0.492   0.536   0.377   0.528   0.436   0.432   0.489   0.438   0.565   0.519   0.571   0.571   0.429   0.411   0.372   0.453   0.534   0.483   0.496   0.515   0.519   0.461   0.383   0.481
   166.00    0.497   0.408   0.626   0.816   0.507   0.670   0.534   0.505   0.415   0.595   0.346   0.553   0.582   0.379   0.392   0.420   0.352   0.556   0.507   0.659   0.556   0.490   0.551   0.502   0.470   0.541   0.405   0.570   0.374   0.400   0.701   0.818   0.562
   161.00    0.396   0.563   0.595   0.664   0.625   0.671   0.493   0.434   0.503   0.490   0.461   0.451   0.460   0.624   0.739   0.742   0.707   0.759   0.709   0.425   0.587   0.473   0.563   0.680   0.319   0.391   0.590   0.557   0.468   0.599   0.625   0.700   0.645
   156.00    0.445   0.501   0.440   0.492   0.430   0.473   0.492   0.391   0.447   0.394   0.594   0.349   0.724   0.613   0.685   0.546   0.706   0.433   0.460   0.617   0.582   0.682   0.747   0.427   0.477   0.440   0.602   0.559   0.789   0.546   0.594   0.597   0.561
   151.00    0.607   0.427   0.459   0.485   0.486   0.582   0.595   0.409   0.503   0.371   0.514   0.615   0.720   0.952   0.852   0.555   0.744   0.460   0.632   0.434   0.641   0.474   0.622   0.690   0.365   0.439   0.572   0.697   0.730   0.794   0.508   0.476   0.438
   146.00    0.462   0.591   0.379   0.398   0.509   0.553   0.565   0.734   0.454   0.486   0.453   0.620   0.801   0.833   0.775   0.636   0.564   0.619   0.625   0.665   0.610   0.497   0.505   0.495   0.560   0.414   0.439   0.447   0.555   0.417   0.637   0.379   0.453
   141.00    0.584   0.517   0.426   0.533   0.346   0.507   0.432   0.521   0.650   0.386   0.329   0.601   0.627   0.800   0.480   0.532   0.508   0.644   0.473   0.762   0.471   0.456   0.409   0.463   0.376   0.474   0.453   0.417   0.361   0.506   0.540   0.433   0.448
   136.00    0.498   0.609   0.341   0.435   0.459   0.414   0.503   0.408   0.504   0.620   0.380   0.631   0.708   0.805   0.438   0.420   0.482   0.422   0.712   0.825   0.542   0.440   0.481   0.537   0.584   0.496   0.355   0.561   0.487   0.365   0.436   0.653   0.737
   131.00    0.397   0.709   0.760   0.407   0.439   0.421   0.606   0.489   0.490   0.446   0.546   0.623   0.511   0.632   0.588   0.366   0.412   0.426   0.533   0.679   0.717   0.389   0.455   0.426   0.432   0.463   0.434   0.597   0.419   0.686   0.602   0.773   0.574
   126.00    0.569   0.675   0.554   0.490   0.404   0.465   0.492   0.724   0.378   0.431   0.538   0.491   0.463   0.415   0.673   0.393   0.527   0.445   0.389   0.416   0.686   0.679   0.611   0.374   0.449   0.383   0.456   0.465   0.413   0.589   0.658   0.636   0.510
   121.00    0.394   0.509   0.534   0.395   0.559   0.353   0.433   0.528   0.564   0.578   0.502   0.467   0.463   0.733   0.586   0.454   0.575   0.411   0.671   0.736   0.662   0.559   0.607   0.438   0.408   0.471   0.422   0.437   0.505   0.529   0.542   0.511   0.548
   116.00    0.616   0.443   0.507   0.363   0.348   0.455   0.584   0.444   0.530   0.412   0.464   0.549   0.706   0.641   0.494   0.542   0.498   0.438   0.523   0.601   0.403   0.486   0.340   0.478   0.557   0.413   0.591   0.432   0.504   0.511   0.396   0.495   0.375
   111.00    0.593   0.427   0.541   0.437   0.514   0.556   0.491   0.398   0.451   0.525   0.649   0.554   0.573   0.526   0.477   0.463   0.585   0.407   0.554   0.417   0.444   0.391   0.512   0.604   0.323   0.515   0.447   0.393   0.393   0.419   0.446   0.576   0.440
   106.00    0.455   0.468   0.522   0.435   0.554   0.610   0.689   0.652   0.406   0.538   0.546   0.451   0.636   0.384   0.536   0.502   0.562   0.637   0.588   0.555   0.549   0.487   0.648   0.433   0.538   0.652   0.445   0.377   0.512   0.490   0.415   0.459   0.474
   101.00    0.543   0.632   0.651   0.517   0.471   0.750   0.593   0.547   0.369   0.551   0.545   0.510   0.511   0.547   0.477   0.450   0.523   0.608   0.374   0.343   0.501   0.702   0.677   0.474   0.369   0.452   0.529   0.428   0.437   0.461   0.604   0.370   0.506
    96.00    0.376   0.371   0.480   0.441   0.572   0.716   0.765   0.698   0.600   0.580   0.481   0.420   0.619   0.468   0.388   0.469   0.595   0.473   0.622   0.803   0.853   0.646   0.458   0.430   0.445   0.505   0.510   0.471   0.474   0.472   0.597   0.649   0.650
    91.00    0.628   0.729   0.680   0.428   0.604   0.447   0.517   0.528   0.545   0.465   0.724   0.587   0.548   0.804   0.719   0.489   0.443   0.579   0.640   0.592   0.733   0.812   0.602   0.437   0.468   0.659   0.552   0.670   0.483   0.486   0.504   0.476   0.393
    86.00    0.547   0.472   0.562   0.379   0.483   0.546   0.571   0.506   0.526   0.647   0.601   0.832   0.991   0.852   0.724   0.540   0.700   0.558   0.405   0.556   0.490   0.686   0.792   0.351   0.490   0.574   0.621   0.605   0.465   0.403   0.500   0.551   0.609
    81.00    0.418   0.470   0.518   0.438   0.391   0.479   0.562   0.751   0.763   0.460   0.643   0.708   0.814   0.783   0.582   0.683   0.588   0.562   0.362   0.569   0.575   0.438   0.691   0.595   0.627   0.395   0.562   0.540   0.516   0.810   0.946   0.614   0.732
    76.00    0.495   0.442   0.545   0.474   0.424   0.429   0.492   0.616   0.557   0.407   0.478   0.524   0.603   0.571   0.518   0.438   0.577   0.433   0.485   0.547   0.652   0.413   0.508   0.625   0.696   0.341   0.474   0.435   0.404   0.648   0.681   0.672   0.784
    71.00    0.732   0.808   0.485   0.567   0.391   0.525   0.433   0.407   0.563   0.568   0.450   0.345   0.464   0.395   0.494   0.452   0.470   0.634   0.600   0.737   0.516   0.479   0.393   0.450   0.508   0.592   0.419   0.628   0.697   0.398   0.504   0.427   0.537
    66.00    0.704   0.768   0.464   0.436   0.431   0.421   0.557   0.405   0.372   0.463   0.535   0.781   0.453   0.531   0.360   0.446   0.450   0.478   0.474   0.469   0.640   0.409   0.493   0.526   0.444   0.561   0.469   0.496   0.578   0.408   0.499   0.343   0.489
    61.00    0.701   0.844   0.581   0.558   0.430   0.601   0.732   0.503   0.487   0.459   0.569   0.622   0.722   0.403   0.489   0.425   0.470   0.431   0.554   0.560   0.479   0.565   0.400   0.558   0.377   0.463   0.695   0.793   0.781   0.885   0.825   0.563   0.340
    56.00    0.584   0.732   0.547   0.593   0.505   0.413   0.666   0.478   0.417   0.531   0.528   0.466   0.554   0.624   0.379   0.399   0.368   0.690   0.451   0.410   0.548   0.577   0.423   0.469   0.391   0.479   0.681   0.890   1.000   0.957   0.629   0.463   0.476
    51.00    0.488   0.552   0.545   0.494   0.383   0.663   0.799   0.440   0.553   0.398   0.451   0.603   0.399   0.632   0.581   0.593   0.570   0.623   0.665   0.612   0.515   0.445   0.449   0.623   0.405   0.510   0.673   0.711   0.768   0.660   0.590   0.461   0.519
    46.00    0.605   0.498   0.492   0.514   0.494   0.553   0.653   0.454   0.635   0.406   0.501   0.366   0.486   0.576   0.569   0.500   0.477   0.449   0.456   0.455   0.541   0.355   0.547   0.483   0.552   0.676   0.466   0.582   0.685   0.336   0.480   0.473   0.459
    41.00    0.519   0.353   0.531   0.339   0.551   0.483   0.482   0.501   0.746   0.583   0.759   0.369   0.454   0.585   0.340   0.461   0.556   0.454   0.542   0.540   0.518   0.445   0.419   0.448   0.479   0.555   0.654   0.719   0.632   0.494   0.492   0.373   0.603
    36.00    0.646   0.753   0.457   0.524   0.599   0.473   0.445   0.526   0.666   0.742   0.783   0.563   0.540   0.419   0.449   0.498   0.428   0.523   0.342   0.482   0.470   0.406   0.397   0.453   0.646   0.412   0.697   0.719   0.540   0.426   0.364   0.416   0.654
    31.00    0.549   0.485   0.588   0.403   0.605   0.407   0.542   0.421   0.521   0.546   0.537   0.693   0.662   0.726   0.473   0.495   0.467   0.514   0.379   0.425   0.477   0.397   0.514   0.581   0.732   0.626   0.820   0.439   0.478   0.390   0.596   0.758   0.508
    26.00    0.523   0.489   0.536   0.420   0.467   0.520   0.600   0.494   0.454   0.431   0.541   0.566   0.527   0.388   0.519   0.508   0.385   0.508   0.470   0.499   0.418   0.494   0.521   0.367   0.462   0.678   0.729   0.686   0.684   0.594   0.603   0.556   0.618
    21.00    0.499   0.402   0.546   0.397   0.460   0.487   0.507   0.449   0.414   0.516   0.461   0.507   0.543   0.483   0.536   0.462   0.538   0.412   0.496   0.422   0.488   0.346   0.516   0.414   0.507   0.462   0.536   0.584   0.577   0.665   0.426   0.411   0.518
    16.00    0.420   0.487   0.536   0.530   0.429   0.456   0.396   0.450   0.569   0.700   0.578   0.480   0.543   0.343   0.343   0.455   0.470   0.649   0.416   0.476   0.426   0.547   0.411   0.492   0.394   0.499   0.362   0.645   0.422   0.614   0.457   0.562   0.399
    11.00    0.443   0.387   0.391   0.600   0.792   0.812   0.712   0.419   0.800   0.734   0.663   0.556   0.572   0.711   0.446   0.696   0.634   0.560   0.413   0.540   0.505   0.449   0.474   0.604   0.369   0.421   0.514   0.685   0.632   0.580   0.645   0.482   0.358
     6.00    0.444   0.568   0.695   0.792   0.787   0.687   0.750   0.773   0.840   0.716   0.587   0.591   0.419   0.513   0.669   0.702   0.514   0.524   0.481   0.495   0.354   0.477   0.564   0.448   0.500   0.471   0.537   0.577   0.492   0.537   0.741   0.711   0.570
     1.00    0.553   0.491   0.603   0.669   0.677   0.485   0.498   0.608   0.474   0.581   0.700   0.410   0.495   0.533   0.472   0.630   0.657   0.691   0.478   0.449   0.582   0.514   0.635   0.373   0.500   0.419   0.510   0.630   0.393   0.510   0.624   0.676   0.741

   Height   Standard deviation at grid points for the w component:
   171.00    0.389   0.396   0.343   0.337   0.388   0.404   0.435   0.351   0.414   0.348   0.392   0.378   0.346   0.322   0.457   0.384   0.563   0.397   0.373   0.361   0.411   0.437   0.380   0.342   0.398   0.442   0.433   0.498   0.470   0.474   0.347   0.356   0.347
   166.00    0.366   0.365   0.430   0.450   0.471   0.539   0.553   0.366   0.508   0.435   0.437   0.339   0.408   0.386   0.396   0.402   0.457   0.446   0.312   0.415   0.373   0.534   0.506   0.385   0.346   0.357   0.398   0.391   0.444   0.441   0.359   0.397   0.385
   161.00    0.488   0.532   0.496   0.398   0.328   0.363   0.376   0.435   0.489   0.484   0.330   0.343   0.418   0.357   0.387   0.348   0.407   0.490   0.442   0.432   0.495   0.540   0.445   0.456   0.452   0.412   0.470   0.488   0.302   0.329   0.377   0.437   0.347
   156.00    0.393   0.462   0.326   0.433   0.488   0.434   0.439   0.342   0.379   0.320   0.378   0.388   0.374   0.364   0.404   0.476   0.445   0.401   0.351   0.433   0.503   0.403   0.390   0.443   0.448   0.447   0.493   0.461   0.424   0.434   0.567   0.369   0.437
   151.00    0.402   0.411   0.346   0.518   0.518   0.338   0.394   0.377   0.376   0.378   0.426   0.346   0.400   0.348   0.426   0.448   0.409   0.374   0.415   0.368   0.349   0.413   0.354   0.413   0.390   0.474   0.538   0.333   0.402   0.435   0.546   0.480   0.457
   146.00    0.566   0.602   0.362   0.546   0.483   0.385   0.396   0.393   0.376   0.371   0.411   0.410   0.421   0.433   0.346   0.457   0.485   0.434   0.363   0.422   0.447   0.343   0.376   0.389   0.379   0.450   0.449   0.405   0.361   0.405   0.463   0.429   0.459
   141.00    0.522   0.592   0.517   0.545   0.527   0.467   0.477   0.360   0.426   0.457   0.357   0.342   0.387   0.367   0.421   0.430   0.378   0.360   0.350   0.454   0.386   0.448   0.343   0.315   0.438   0.434   0.330   0.408   0.371   0.342   0.382   0.376   0.506
   136.00    0.458   0.497   0.489   0.371   0.382   0.391   0.433   0.441   0.383   0.424   0.459   0.388   0.339   0.465   0.424   0.390   0.457   0.484   0.319   0.433   0.395   0.429   0.350   0.400   0.475   0.564   0.467   0.508   0.584   0.480   0.432   0.556   0.498
   131.00    0.448   0.472   0.574   0.428   0.451   0.327   0.348   0.318   0.383   0.386   0.405   0.340   0.348   0.438   0.480   0.453   0.407   0.394   0.472   0.452   0.371   0.320   0.350   0.365   0.426   0.518   0.427   0.429   0.476   0.502   0.486   0.404   0.563
   126.00    0.360   0.466   0.486   0.486   0.463   0.455   0.344   0.449   0.503   0.343   0.392   0.404   0.482   0.352   0.431   0.418   0.459   0.375   0.404   0.355   0.414   0.442   0.389   0.325   0.388   0.363   0.490   0.525   0.341   0.393   0.367   0.451   0.521
   121.00    0.399   0.433   0.321   0.440   0.381   0.410   0.339   0.419   0.391   0.344   0.363   0.439   0.348   0.455   0.483   0.466   0.555   0.307   0.449   0.433   0.437   0.364   0.382   0.386   0.347   0.377   0.370   0.430   0.456   0.396   0.409   0.403   0.472
   116.00    0.338   0.339   0.400   0.459   0.419   0.332   0.336   0.389   0.501   0.325   0.473   0.369   0.413   0.308   0.384   0.512   0.633   0.370   0.496   0.327   0.334   0.383   0.360   0.322   0.487   0.515   0.499   0.348   0.417   0.394   0.363   0.364   0.414
   111.00    0.525   0.378   0.364   0.372   0.394   0.333   0.536   0.630   0.577   0.376   0.493   0.366   0.409   0.360   0.321   0.473   0.523   0.645   0.507   0.539   0.318   0.337   0.505   0.459   0.501   0.465   0.357   0.420   0.345   0.403   0.375   0.362   0.384
   106.00    0.495   0.345   0.394   0.496   0.528   0.548   0.510   0.594   0.417   0.339   0.390   0.425   0.476   0.359   0.402   0.460   0.563   0.694   0.538   0.544   0.499   0.509   0.655   0.711   0.395   0.343   0.361   0.371   0.360   0.409   0.379   0.347   0.323
   101.00    0.405   0.453   0.521   0.480   0.420   0.389   0.518   0.476   0.610   0.487   0.294   0.380   0.507   0.536   0.329   0.389   0.468   0.541   0.561   0.496   0.425   0.494   0.541   0.594   0.598   0.375   0.355   0.369   0.328   0.375   0.413   0.495   0.440
    96.00    0.393   0.335   0.454   0.470   0.448   0.409   0.514   0.541   0.588   0.599   0.590   0.384   0.451   0.522   0.456   0.373   0.417   0.435   0.456   0.359   0.437   0.375   0.398   0.420   0.484   0.422   0.404   0.375   0.349   0.351   0.371   0.551   0.618
    91.00    0.548   0.368   0.342   0.451   0.403   0.392   0.401   0.436   0.529   0.463   0.502   0.448   0.423   0.441   0.490   0.467   0.454   0.400   0.401   0.418   0.389   0.352   0.398   0.362   0.432   0.485   0.398   0.447   0.500   0.359   0.364   0.486   0.551
    86.00    0.477   0.467   0.463   0.398   0.390   0.549   0.613   0.378   0.473   0.408   0.448   0.309   0.438   0.335   0.453   0.354   0.359   0.344   0.406   0.340   0.397   0.421   0.398   0.389   0.382   0.424   0.345   0.420   0.449   0.308   0.383   0.406   0.472
    81.00    0.368   0.404   0.305   0.358   0.444   0.536   0.534   0.296   0.446   0.467   0.438   0.392   0.478   0.298   0.390   0.471   0.373   0.404   0.344   0.408   0.479   0.371   0.442   0.392   0.381   0.439   0.342   0.375   0.297   0.377   0.361   0.423   0.397
    76.00    0.418   0.349   0.449   0.435   0.356   0.374   0.400   0.442   0.328   0.418   0.406   0.426   0.464   0.330   0.346   0.477   0.377   0.417   0.390   0.502   0.379   0.357   0.327   0.342   0.380   0.347   0.370   0.436   0.405   0.344   0.453   0.312   0.389
    71.00    0.581   0.452   0.531   0.482   0.558   0.504   0.379   0.480   0.484   0.314   0.359   0.388   0.479   0.359   0.426   0.387   0.386   0.422   0.410   0.424   0.345   0.514   0.453   0.525   0.350   0.364   0.374   0.361   0.416   0.461   0.495   0.374   0.436
    66.00    0.566   0.562   0.325   0.497   0.574   0.369   0.379   0.347   0.424   0.471   0.372   0.400   0.417   0.441   0.357   0.447   0.438   0.444   0.611   0.618   0.423   0.592   0.466   0.527   0.507   0.338   0.356   0.494   0.439   0.320   0.462   0.585   0.522
    61.00    0.483   0.508   0.521   0.508   0.521   0.433   0.336   0.480   0.433   0.333   0.455   0.515   0.439   0.323   0.395   0.465   0.367   0.492   0.552   0.563   0.414   0.519   0.531   0.540   0.358   0.399   0.472   0.502   0.298   0.391   0.369   0.418   0.500
    56.00    0.556   0.368   0.513   0.619   0.422   0.334   0.340   0.479   0.488   0.390   0.368   0.384   0.474   0.390   0.452   0.444   0.320   0.416   0.393   0.414   0.448   0.486   0.476   0.413   0.451   0.425   0.387   0.389   0.497   0.411   0.385   0.402   0.382
    51.00    0.432   0.529   0.455   0.549   0.522   0.356   0.464   0.456   0.457   0.415   0.341   0.418   0.489   0.494   0.469   0.341   0.381   0.395   0.493   0.346   0.437   0.310   0.437   0.404   0.389   0.333   0.387   0.449   0.426   0.531   0.472   0.399   0.354
    46.00    0.366   0.354   0.467   0.431   0.398   0.409   0.343   0.394   0.392   0.350   0.477   0.497   0.541   0.545   0.364   0.356   0.388   0.519   0.483   0.357   0.380   0.443   0.328   0.382   0.317   0.342   0.420   0.392   0.450   0.547   0.321   0.439   0.421
    41.00    0.450   0.499   0.633   0.669   0.550   0.555   0.474   0.390   0.440   0.365   0.451   0.508   0.571   0.506   0.496   0.457   0.411   0.473   0.459   0.516   0.339   0.371   0.423   0.346   0.490   0.408   0.503   0.376   0.409   0.530   0.387   0.453   0.425
    36.00    0.490   0.419   0.537   0.611   0.440   0.415   0.552   0.543   0.294   0.425   0.484   0.523   0.538   0.352   0.396   0.406   0.405   0.425   0.587   0.677   0.389   0.371   0.388   0.356   0.372   0.543   0.386   0.491   0.326   0.463   0.523   0.412   0.451
    31.00    0.513   0.445   0.439   0.540   0.543   0.376   0.444   0.490   0.337   0.363   0.328   0.471   0.440   0.337   0.334   0.426   0.443   0.475   0.530   0.603   0.585   0.314   0.379   0.336   0.457   0.585   0.503   0.477   0.539   0.440   0.378   0.471   0.440
    26.00    0.509   0.453   0.516   0.574   0.575   0.549   0.332   0.356   0.426   0.409   0.413   0.353   0.354   0.379   0.411   0.446   0.357   0.389   0.451   0.569   0.431   0.488   0.462   0.493   0.479   0.437   0.425   0.369   0.447   0.379   0.447   0.525   0.313
    21.00    0.470   0.374   0.413   0.438   0.441   0.441   0.337   0.341   0.417   0.542   0.316   0.367   0.440   0.375   0.361   0.376   0.342   0.444   0.359   0.554   0.592   0.486   0.373   0.462   0.420   0.480   0.456   0.341   0.441   0.529   0.572   0.418   0.482
    16.00    0.497   0.323   0.393   0.353   0.379   0.374   0.357   0.360   0.440   0.525   0.396   0.426   0.397   0.446   0.478   0.323   0.434   0.426   0.358   0.497   0.550   0.632   0.395   0.325   0.329   0.346   0.382   0.355   0.414   0.425   0.382   0.386   0.453
    11.00    0.507   0.334   0.332   0.340   0.442   0.364   0.472   0.388   0.381   0.431   0.499   0.324   0.395   0.479   0.509   0.323   0.415   0.419   0.390   0.340   0.433   0.479   0.470   0.413   0.417   0.409   0.355   0.413   0.346   0.350   0.397   0.419   0.395
     6.00    0.492   0.526   0.428   0.359   0.394   0.393   0.384   0.339   0.397   0.362   0.445   0.329   0.445   0.396   0.454   0.456   0.346   0.368   0.475   0.441   0.392   0.364   0.320   0.358   0.404   0.336   0.356   0.352   0.398   0.389   0.325   0.406   0.315
     1.00    0.434   0.480   0.364   0.424   0.404   0.440   0.344   0.383   0.415   0.385   0.394   0.374   0.483   0.419   0.496   0.409   0.354   0.354   0.457   0.509   0.387   0.438   0.354   0.454   0.412   0.506   0.358   0.384   0.324   0.393   0.454   0.369   0.391

   Mean standard deviation across all grid points:
      u component:    0.457 m/s
      v component:    0.533 m/s
      w component:    0.426 m/s


U-component (X) statistics from the interpolated hub point:

   Mean =  10.0559 m/s
   TI   =   3.9539 %


Processing complete.  1.6968 CPU seconds used.
