
This summary file was generated by TurbSim (from OpenFAST-v3.4.1-dirty) on 14-Dec-2023 at 13:51:13.


Runtime Options:

   2318573  Random seed #1
    RANLUX  Type of random number generator
         F  Output binary HH turbulence parameters?
         F  Output formatted turbulence parameters?
         F  Output AeroDyn HH files?
         T  Output AeroDyn FF files?
         F  Output BLADED FF files?
         F  Output tower data?
         F  Output HAWC FF files?
         F  Output formatted FF files?
         T  Output coherent turbulence time step file?
 0 -  NONE  IEC turbulence models scaled to exact specified standard deviation


Turbine/Model Specifications:

        35  Vertical grid-point matrix dimension
        33  Horizontal grid-point matrix dimension
     0.300  Time step [seconds]
    10.000  Analysis time [seconds]
    10.000  Usable output time [seconds]
    91.000  Hub height [m]
   170.000  Grid height [m]
   160.000  Grid width [m]
     0.000  Vertical flow angle [degrees]
     0.000  Horizontal flow angle [degrees]


Meteorological Boundary Conditions:

    TIMESR  User-input time series spectral model
       N/A  IEC standard
       N/A  IEC turbulence characteristic
       N/A  IEC turbulence type
       N/A  IEC Extreme Turbulence Model (ETM) "c" parameter [m/s]
       PL   Wind profile type
    88.500  Reference height [m]
    10.000  Reference wind speed [m/s]
       N/A  Jet height [m]
     0.200  Power law exponent
     0.030  Surface roughness length [m]


Non-IEC Meteorological Boundary Conditions:

    45.000  Site latitude [degrees]
     0.050  Gradient Richardson number
     0.481  Friction or shear velocity [m/s]
       N/A  Mixing layer depth [m]
       N/A  Mean hub u'w' Reynolds stress
       N/A  Mean hub u'v' Reynolds stress
       N/A  Mean hub v'w' Reynolds stress


Spatial Coherence Models:

       IEC  u-component coherence model
       IEC  v-component coherence model
       IEC  w-component coherence model
(   12.000, 0.353E-03)  u-component coherence parameters
(   12.000, 0.353E-03)  v-component coherence parameters
(   12.000, 0.353E-03)  w-component coherence parameters
       N/A  Coherence exponent


Coherent Turbulence Scaling Parameters:

.\EventData
            Name of the path containing the coherent turbulence data files
       les  Type of coherent turbulence data files
     1.000  Disturbance scale (ratio of wave height to rotor diameter)
     0.500  Fractional location of tower centerline from right
     0.500  Fractional location of hub height from the bottom of the dataset
    30.000  Minimum start time for coherent structures [seconds]


Profiles from User-Defined Time-Series Input:

  Height   Wind Speed   Horizontal Angle   Vertical Angle
   (m)        (m/s)          (deg)              (deg)    
  ------   ----------   ----------------   --------------
   76.00       9.70           0.00                0.00


You have requested that the following file(s) be generated:

   ./Test/Cond00_v10.0_PL0.2_TI10/Case0_wdirp00/Seed_0/TurbSim/HighT10.bts (AeroDyn/TurbSim full-field wind file)


Turbulence Simulation Scaling Parameter Summary:

   Turbulence model used                            =  User-input time series
   Gradient Richardson number                       =    0.050
   Monin-Obukhov (M-O) z/L parameter                =    0.067
   Monin-Obukhov (M-O) length scale                 = 1365.000 m
   Mean wind speed at hub height                    =   10.056 m/s

   Wind profile type                                =  Power law
   Power law exponent                               =    0.200
   Mean shear across rotor disk                     =    0.030 (m/s)/m
   Assumed rotor diameter                           =  160.000 m
   Surface roughness length                         =    0.030 m

   Nyquist frequency of turbulent wind field        =    1.667 Hz

   Number of time steps in the FFT                  =       34
   Number of time steps output                      =       34
   Number of points simulated                       =     1156


Mean Flow Angles:

   Vertical   =   0.0 degrees
   Horizontal =   0.0 degrees

Mean Wind Speed Profile:

   Height    Wind Speed   Horizontal Angle  Vertical Angle  U-comp (X)   V-comp (Y)   W-comp (Z)
     (m)        (m/s)         (degrees)       (degrees)       (m/s)        (m/s)        (m/s)   
   ------    ----------   ----------------  --------------  ----------   ----------   ----------
    171.0       11.41            0.00            0.00         11.41         0.00         0.00
    166.0       11.34            0.00            0.00         11.34         0.00         0.00
    161.0       11.27            0.00            0.00         11.27         0.00         0.00
    156.0       11.20            0.00            0.00         11.20         0.00         0.00
    151.0       11.13            0.00            0.00         11.13         0.00         0.00
    146.0       11.05            0.00            0.00         11.05         0.00         0.00
    141.0       10.98            0.00            0.00         10.98         0.00         0.00
    136.0       10.90            0.00            0.00         10.90         0.00         0.00
    131.0       10.82            0.00            0.00         10.82         0.00         0.00
    126.0       10.73            0.00            0.00         10.73         0.00         0.00
    121.0       10.65            0.00            0.00         10.65         0.00         0.00
    116.0       10.56            0.00            0.00         10.56         0.00         0.00
    111.0       10.46            0.00            0.00         10.46         0.00         0.00
    106.0       10.37            0.00            0.00         10.37         0.00         0.00
    101.0       10.27            0.00            0.00         10.27         0.00         0.00
     96.0       10.16            0.00            0.00         10.16         0.00         0.00
     91.0       10.06            0.00            0.00         10.06         0.00         0.00
     86.0        9.94            0.00            0.00          9.94         0.00         0.00
     81.0        9.82            0.00            0.00          9.82         0.00         0.00
     76.0        9.70            0.00            0.00          9.70         0.00         0.00
     71.0        9.57            0.00            0.00          9.57         0.00         0.00
     66.0        9.43            0.00            0.00          9.43         0.00         0.00
     61.0        9.28            0.00            0.00          9.28         0.00         0.00
     56.0        9.13            0.00            0.00          9.13         0.00         0.00
     51.0        8.96            0.00            0.00          8.96         0.00         0.00
     46.0        8.77            0.00            0.00          8.77         0.00         0.00
     41.0        8.57            0.00            0.00          8.57         0.00         0.00
     36.0        8.35            0.00            0.00          8.35         0.00         0.00
     31.0        8.11            0.00            0.00          8.11         0.00         0.00
     26.0        7.83            0.00            0.00          7.83         0.00         0.00
     21.0        7.50            0.00            0.00          7.50         0.00         0.00
     16.0        7.10            0.00            0.00          7.10         0.00         0.00
     11.0        6.59            0.00            0.00          6.59         0.00         0.00
      6.0        5.84            0.00            0.00          5.84         0.00         0.00
      1.0        4.08            0.00            0.00          4.08         0.00         0.00


Harvested Random Seeds after Generation of the Random Numbers:

       547700 K 1
            0 K 2


Hub-Height Simulated Turbulence Statistical Summary:

   Type of Wind        Min (m/s)   Mean (m/s)    Max (m/s)  Sigma (m/s)       TI (%)
   ----------------    ---------   ----------    ---------  -----------       ------
   Longitudinal (u)         9.31        10.06        11.02        0.417        4.145
   Lateral (v)             -0.73         0.00         0.81        0.421        4.182
   Vertical (w)            -0.82         0.00         1.07        0.480        4.769
   U component              9.31        10.06        11.02        0.417        4.145
   V component             -0.73         0.00         0.81        0.421        4.182
   W component             -0.82         0.00         1.07        0.480        4.769
   Horizontal (U&V)         9.31        10.06        11.03        0.417        4.139
   Total                    9.31        10.08        11.03        0.416        4.133

                       Min Reynolds     Mean Reynolds    Max Reynolds    Correlation
   Product             Stress (m/s)^2   Stress (m/s)^2   Stress (m/s)^2  Coefficient
   ----------------    --------------   --------------   --------------  -----------
   u'w'                     -0.503            -0.082             0.215        -0.412
   u'v'                     -0.414             0.015             0.296         0.086
   v'w'                     -0.453             0.014             0.382         0.069


   Friction Velocity (Ustar)  =      0.287 m/s
   Maximum Instantaneous TKE  =      0.686 (m/s)^2
   Maximum Instantaneous CTKE =      0.315 (m/s)^2


Grid Point Variance Summary:

   Y-coord  -80.00  -75.00  -70.00  -65.00  -60.00  -55.00  -50.00  -45.00  -40.00  -35.00  -30.00  -25.00  -20.00  -15.00  -10.00   -5.00    0.00    5.00   10.00   15.00   20.00   25.00   30.00   35.00   40.00   45.00   50.00   55.00   60.00   65.00   70.00   75.00   80.00

   Height   Standard deviation at grid points for the u component:
   171.00    0.417   0.562   0.592   0.733   0.680   0.450   0.552   0.400   0.516   0.392   0.512   0.359   0.318   0.448   0.622   0.382   0.396   0.357   0.548   0.418   0.536   0.371   0.411   0.415   0.480   0.689   0.633   0.659   0.408   0.445   0.502   0.456   0.490
   166.00    0.386   0.487   0.318   0.562   0.602   0.359   0.370   0.465   0.464   0.585   0.338   0.624   0.670   0.312   0.504   0.490   0.441   0.372   0.524   0.414   0.543   0.373   0.340   0.490   0.433   0.544   0.433   0.439   0.406   0.368   0.479   0.371   0.443
   161.00    0.420   0.469   0.379   0.403   0.605   0.400   0.431   0.539   0.664   0.637   0.626   0.521   0.474   0.546   0.431   0.430   0.361   0.573   0.507   0.486   0.478   0.410   0.410   0.525   0.706   0.420   0.511   0.301   0.477   0.520   0.613   0.365   0.467
   156.00    0.345   0.604   0.632   0.640   0.582   0.579   0.673   0.407   0.566   0.423   0.479   0.402   0.350   0.459   0.490   0.464   0.455   0.557   0.465   0.426   0.456   0.301   0.565   0.396   0.638   0.528   0.650   0.391   0.419   0.517   0.518   0.355   0.518
   151.00    0.597   0.574   0.479   0.485   0.390   0.442   0.558   0.416   0.594   0.462   0.333   0.366   0.467   0.503   0.293   0.462   0.319   0.343   0.333   0.494   0.427   0.436   0.656   0.580   0.620   0.486   0.577   0.611   0.480   0.570   0.340   0.414   0.473
   146.00    0.510   0.594   0.644   0.640   0.538   0.477   0.475   0.361   0.362   0.504   0.583   0.443   0.498   0.583   0.603   0.382   0.477   0.428   0.514   0.587   0.442   0.604   0.718   0.591   0.653   0.483   0.531   0.611   0.508   0.440   0.568   0.651   0.624
   141.00    0.444   0.436   0.647   0.675   0.411   0.383   0.424   0.443   0.584   0.355   0.461   0.415   0.444   0.656   0.576   0.354   0.360   0.440   0.332   0.428   0.348   0.566   0.575   0.391   0.409   0.646   0.641   0.403   0.565   0.443   0.550   0.583   0.425
   136.00    0.466   0.486   0.615   0.732   0.474   0.430   0.385   0.544   0.630   0.354   0.520   0.755   0.435   0.504   0.448   0.474   0.468   0.444   0.455   0.421   0.563   0.529   0.437   0.527   0.634   0.669   0.473   0.614   0.403   0.379   0.383   0.471   0.534
   131.00    0.493   0.619   0.675   0.617   0.454   0.586   0.468   0.496   0.494   0.437   0.535   0.637   0.619   0.605   0.322   0.546   0.391   0.473   0.349   0.508   0.459   0.542   0.365   0.524   0.739   0.417   0.602   0.674   0.622   0.610   0.590   0.454   0.371
   126.00    0.310   0.383   0.440   0.409   0.539   0.501   0.419   0.397   0.534   0.584   0.685   0.360   0.442   0.399   0.344   0.405   0.409   0.324   0.509   0.542   0.405   0.416   0.417   0.442   0.587   0.705   0.647   0.623   0.489   0.612   0.659   0.562   0.491
   121.00    0.522   0.503   0.425   0.414   0.466   0.355   0.542   0.421   0.548   0.488   0.570   0.568   0.394   0.425   0.398   0.530   0.533   0.666   0.647   0.310   0.419   0.436   0.594   0.407   0.535   0.498   0.555   0.494   0.521   0.507   0.639   0.606   0.413
   116.00    0.400   0.448   0.421   0.433   0.647   0.572   0.526   0.438   0.633   0.381   0.496   0.336   0.371   0.463   0.388   0.444   0.572   0.682   0.672   0.390   0.369   0.475   0.588   0.464   0.358   0.375   0.379   0.421   0.423   0.540   0.596   0.586   0.600
   111.00    0.532   0.443   0.317   0.620   0.688   0.679   0.386   0.399   0.471   0.628   0.357   0.399   0.385   0.460   0.468   0.594   0.665   0.700   0.536   0.440   0.435   0.387   0.502   0.425   0.529   0.428   0.453   0.313   0.574   0.528   0.407   0.511   0.529
   106.00    0.433   0.487   0.644   0.678   0.463   0.505   0.496   0.577   0.512   0.460   0.425   0.383   0.334   0.478   0.644   0.626   0.730   0.635   0.527   0.516   0.548   0.463   0.378   0.392   0.523   0.403   0.341   0.380   0.465   0.516   0.396   0.401   0.386
   101.00    0.378   0.409   0.459   0.663   0.657   0.584   0.331   0.541   0.588   0.422   0.381   0.493   0.438   0.404   0.532   0.678   0.709   0.477   0.387   0.550   0.499   0.545   0.439   0.550   0.483   0.347   0.434   0.536   0.393   0.396   0.355   0.500   0.602
    96.00    0.423   0.380   0.534   0.594   0.601   0.687   0.472   0.417   0.606   0.378   0.453   0.377   0.566   0.536   0.317   0.440   0.491   0.379   0.374   0.433   0.466   0.362   0.486   0.592   0.413   0.369   0.448   0.561   0.326   0.376   0.511   0.458   0.512
    91.00    0.379   0.372   0.380   0.443   0.349   0.570   0.738   0.538   0.575   0.695   0.722   0.543   0.610   0.416   0.426   0.372   0.417   0.437   0.468   0.647   0.330   0.428   0.445   0.415   0.398   0.374   0.392   0.348   0.527   0.486   0.529   0.385   0.403
    86.00    0.404   0.410   0.432   0.359   0.385   0.522   0.639   0.640   0.423   0.524   0.514   0.359   0.525   0.626   0.271   0.456   0.635   0.726   0.510   0.581   0.382   0.541   0.307   0.397   0.408   0.426   0.407   0.542   0.288   0.535   0.550   0.493   0.602
    81.00    0.409   0.467   0.485   0.318   0.430   0.415   0.520   0.742   0.802   0.771   0.623   0.658   0.592   0.679   0.677   0.328   0.464   0.509   0.496   0.676   0.688   0.408   0.551   0.417   0.469   0.343   0.360   0.512   0.518   0.626   0.610   0.415   0.492
    76.00    0.715   0.345   0.482   0.610   0.591   0.496   0.598   0.614   0.614   0.594   0.507   0.419   0.366   0.503   0.508   0.323   0.446   0.461   0.382   0.408   0.574   0.649   0.417   0.445   0.318   0.484   0.432   0.457   0.390   0.528   0.384   0.376   0.431
    71.00    0.715   0.666   0.352   0.426   0.566   0.553   0.620   0.440   0.388   0.461   0.440   0.473   0.498   0.592   0.415   0.536   0.354   0.568   0.412   0.461   0.374   0.550   0.384   0.380   0.366   0.386   0.370   0.489   0.536   0.451   0.473   0.380   0.386
    66.00    0.652   0.697   0.381   0.394   0.437   0.554   0.585   0.644   0.423   0.480   0.381   0.418   0.424   0.536   0.462   0.465   0.571   0.590   0.638   0.531   0.366   0.407   0.497   0.348   0.485   0.564   0.470   0.460   0.523   0.627   0.716   0.610   0.507
    61.00    0.593   0.662   0.560   0.295   0.400   0.412   0.481   0.431   0.437   0.475   0.536   0.562   0.437   0.556   0.378   0.451   0.396   0.548   0.613   0.314   0.560   0.489   0.414   0.434   0.374   0.434   0.360   0.572   0.691   0.425   0.600   0.547   0.346
    56.00    0.629   0.461   0.586   0.687   0.515   0.340   0.489   0.421   0.334   0.460   0.412   0.357   0.436   0.457   0.453   0.554   0.330   0.446   0.463   0.315   0.385   0.483   0.524   0.384   0.475   0.357   0.519   0.580   0.488   0.450   0.569   0.414   0.403
    51.00    0.450   0.475   0.507   0.494   0.383   0.476   0.430   0.423   0.406   0.363   0.372   0.599   0.671   0.352   0.530   0.621   0.568   0.521   0.425   0.566   0.497   0.453   0.425   0.342   0.383   0.344   0.458   0.616   0.346   0.413   0.560   0.387   0.366
    46.00    0.361   0.423   0.407   0.309   0.426   0.441   0.402   0.470   0.492   0.422   0.460   0.462   0.403   0.582   0.705   0.737   0.383   0.515   0.454   0.621   0.530   0.557   0.657   0.315   0.463   0.561   0.568   0.620   0.361   0.567   0.498   0.382   0.547
    41.00    0.652   0.518   0.358   0.641   0.397   0.298   0.344   0.469   0.366   0.437   0.391   0.487   0.599   0.563   0.617   0.622   0.507   0.480   0.570   0.688   0.517   0.559   0.410   0.428   0.388   0.407   0.501   0.684   0.491   0.572   0.493   0.359   0.427
    36.00    0.605   0.536   0.701   0.665   0.729   0.537   0.448   0.450   0.415   0.393   0.542   0.554   0.418   0.494   0.454   0.457   0.446   0.604   0.686   0.600   0.458   0.576   0.569   0.386   0.330   0.449   0.363   0.529   0.534   0.549   0.374   0.609   0.351
    31.00    0.496   0.493   0.535   0.449   0.503   0.536   0.533   0.407   0.581   0.388   0.486   0.468   0.314   0.435   0.424   0.457   0.465   0.520   0.685   0.761   0.424   0.470   0.425   0.405   0.462   0.517   0.655   0.399   0.509   0.469   0.348   0.499   0.674
    26.00    0.432   0.329   0.417   0.430   0.396   0.388   0.589   0.630   0.727   0.714   0.367   0.358   0.436   0.393   0.375   0.364   0.408   0.355   0.518   0.581   0.517   0.385   0.443   0.483   0.450   0.418   0.547   0.321   0.390   0.423   0.472   0.352   0.576
    21.00    0.496   0.432   0.416   0.520   0.374   0.637   0.514   0.688   0.585   0.590   0.530   0.395   0.538   0.393   0.387   0.364   0.481   0.464   0.563   0.591   0.301   0.425   0.351   0.393   0.329   0.403   0.375   0.544   0.320   0.400   0.436   0.347   0.562
    16.00    0.472   0.345   0.391   0.617   0.650   0.550   0.592   0.677   0.350   0.433   0.416   0.487   0.500   0.361   0.303   0.349   0.573   0.339   0.483   0.516   0.403   0.425   0.465   0.601   0.487   0.500   0.287   0.485   0.515   0.376   0.384   0.279   0.497
    11.00    0.385   0.496   0.459   0.592   0.535   0.432   0.454   0.558   0.494   0.341   0.381   0.377   0.470   0.531   0.461   0.567   0.600   0.512   0.582   0.513   0.408   0.408   0.490   0.450   0.323   0.454   0.711   0.431   0.390   0.454   0.567   0.505   0.490
     6.00    0.503   0.489   0.472   0.511   0.435   0.343   0.504   0.568   0.449   0.335   0.439   0.426   0.465   0.442   0.481   0.643   0.639   0.519   0.629   0.639   0.393   0.450   0.390   0.403   0.474   0.676   0.681   0.595   0.565   0.489   0.520   0.480   0.451
     1.00    0.496   0.587   0.541   0.331   0.389   0.526   0.540   0.574   0.452   0.537   0.454   0.432   0.494   0.479   0.488   0.599   0.591   0.435   0.530   0.615   0.667   0.377   0.435   0.431   0.342   0.457   0.584   0.628   0.452   0.513   0.372   0.455   0.505

   Height   Standard deviation at grid points for the v component:
   171.00    0.556   0.658   0.576   0.598   0.362   0.535   0.539   0.577   0.446   0.481   0.518   0.377   0.506   0.427   0.426   0.480   0.428   0.545   0.498   0.550   0.543   0.426   0.407   0.368   0.446   0.516   0.480   0.489   0.506   0.504   0.454   0.383   0.467
   166.00    0.484   0.402   0.601   0.771   0.496   0.641   0.515   0.494   0.414   0.576   0.345   0.534   0.555   0.374   0.393   0.422   0.351   0.538   0.495   0.634   0.540   0.482   0.528   0.483   0.456   0.519   0.402   0.553   0.373   0.395   0.671   0.774   0.538
   161.00    0.386   0.545   0.573   0.632   0.599   0.639   0.478   0.428   0.493   0.478   0.451   0.440   0.451   0.600   0.703   0.706   0.678   0.720   0.671   0.418   0.564   0.457   0.537   0.651   0.318   0.385   0.566   0.542   0.464   0.571   0.596   0.667   0.616
   156.00    0.443   0.489   0.432   0.476   0.427   0.459   0.474   0.384   0.436   0.389   0.574   0.345   0.687   0.586   0.651   0.523   0.671   0.422   0.448   0.594   0.557   0.654   0.713   0.427   0.468   0.432   0.572   0.539   0.747   0.524   0.568   0.574   0.539
   151.00    0.586   0.424   0.448   0.476   0.482   0.567   0.578   0.406   0.490   0.369   0.495   0.592   0.681   0.896   0.804   0.532   0.708   0.457   0.603   0.423   0.611   0.464   0.596   0.655   0.365   0.426   0.550   0.668   0.692   0.755   0.488   0.462   0.430
   146.00    0.456   0.569   0.378   0.391   0.497   0.532   0.551   0.703   0.452   0.470   0.444   0.593   0.757   0.788   0.735   0.606   0.542   0.594   0.598   0.633   0.583   0.479   0.488   0.480   0.538   0.413   0.435   0.438   0.529   0.411   0.613   0.378   0.442
   141.00    0.567   0.495   0.422   0.513   0.342   0.489   0.424   0.502   0.621   0.386   0.327   0.574   0.599   0.756   0.467   0.514   0.487   0.613   0.456   0.724   0.462   0.451   0.403   0.458   0.368   0.464   0.441   0.408   0.358   0.492   0.524   0.421   0.440
   136.00    0.487   0.582   0.339   0.428   0.450   0.410   0.483   0.408   0.484   0.596   0.372   0.600   0.674   0.762   0.431   0.414   0.470   0.413   0.680   0.778   0.521   0.426   0.469   0.514   0.563   0.483   0.356   0.538   0.470   0.364   0.425   0.620   0.698
   131.00    0.394   0.677   0.719   0.405   0.432   0.410   0.579   0.474   0.480   0.443   0.534   0.609   0.492   0.600   0.564   0.366   0.405   0.415   0.513   0.652   0.683   0.387   0.448   0.418   0.423   0.458   0.419   0.572   0.420   0.659   0.573   0.731   0.553
   126.00    0.549   0.645   0.529   0.476   0.402   0.456   0.476   0.688   0.376   0.429   0.519   0.483   0.459   0.407   0.641   0.391   0.516   0.439   0.389   0.411   0.659   0.645   0.582   0.372   0.435   0.376   0.449   0.450   0.410   0.563   0.626   0.610   0.488
   121.00    0.393   0.490   0.516   0.389   0.537   0.350   0.426   0.510   0.546   0.563   0.483   0.455   0.450   0.697   0.562   0.440   0.559   0.400   0.640   0.699   0.636   0.538   0.582   0.433   0.403   0.459   0.416   0.431   0.493   0.510   0.528   0.505   0.539
   116.00    0.589   0.434   0.492   0.360   0.345   0.444   0.559   0.437   0.508   0.411   0.452   0.534   0.672   0.616   0.478   0.525   0.490   0.431   0.502   0.574   0.398   0.476   0.341   0.463   0.538   0.401   0.568   0.430   0.493   0.489   0.389   0.481   0.373
   111.00    0.571   0.415   0.524   0.424   0.501   0.542   0.475   0.396   0.444   0.511   0.619   0.539   0.561   0.513   0.466   0.446   0.558   0.399   0.532   0.410   0.435   0.390   0.494   0.580   0.324   0.503   0.441   0.393   0.385   0.417   0.433   0.553   0.433
   106.00    0.448   0.468   0.513   0.432   0.535   0.586   0.653   0.622   0.406   0.515   0.527   0.439   0.614   0.380   0.521   0.495   0.534   0.601   0.557   0.534   0.538   0.476   0.620   0.425   0.519   0.623   0.445   0.368   0.502   0.481   0.407   0.453   0.462
   101.00    0.525   0.607   0.620   0.498   0.454   0.712   0.570   0.528   0.369   0.532   0.532   0.495   0.500   0.532   0.471   0.450   0.507   0.580   0.368   0.342   0.492   0.673   0.645   0.466   0.359   0.446   0.518   0.417   0.430   0.456   0.586   0.370   0.491
    96.00    0.375   0.371   0.472   0.426   0.552   0.680   0.724   0.662   0.576   0.558   0.472   0.422   0.590   0.470   0.383   0.464   0.575   0.475   0.604   0.765   0.799   0.617   0.455   0.422   0.436   0.486   0.496   0.466   0.467   0.470   0.582   0.626   0.624
    91.00    0.597   0.691   0.648   0.427   0.586   0.433   0.494   0.514   0.529   0.454   0.697   0.563   0.526   0.779   0.680   0.461   0.421   0.556   0.602   0.569   0.679   0.760   0.567   0.426   0.457   0.631   0.526   0.641   0.474   0.481   0.499   0.462   0.392
    86.00    0.532   0.463   0.540   0.374   0.474   0.529   0.554   0.501   0.507   0.626   0.591   0.812   0.962   0.851   0.726   0.581   0.705   0.515   0.429   0.485   0.456   0.636   0.743   0.346   0.469   0.546   0.599   0.582   0.448   0.397   0.488   0.540   0.588
    81.00    0.416   0.458   0.501   0.424   0.388   0.472   0.541   0.719   0.734   0.457   0.637   0.703   0.818   0.800   0.664   0.747   0.626   0.541   0.340   0.479   0.496   0.430   0.648   0.568   0.601   0.390   0.544   0.525   0.499   0.767   0.891   0.596   0.703
    76.00    0.483   0.431   0.532   0.468   0.416   0.425   0.481   0.594   0.539   0.410   0.485   0.539   0.650   0.653   0.532   0.496   0.614   0.521   0.464   0.456   0.577   0.427   0.489   0.586   0.653   0.340   0.459   0.436   0.392   0.621   0.649   0.639   0.745
    71.00    0.694   0.767   0.477   0.556   0.388   0.506   0.429   0.402   0.549   0.557   0.443   0.338   0.456   0.490   0.607   0.440   0.471   0.542   0.582   0.680   0.452   0.494   0.394   0.438   0.493   0.564   0.420   0.609   0.670   0.394   0.492   0.417   0.517
    66.00    0.672   0.727   0.453   0.435   0.427   0.410   0.536   0.398   0.372   0.457   0.502   0.712   0.416   0.501   0.353   0.410   0.421   0.441   0.489   0.409   0.560   0.417   0.486   0.510   0.441   0.540   0.464   0.480   0.556   0.401   0.481   0.342   0.477
    61.00    0.664   0.797   0.556   0.539   0.418   0.574   0.699   0.498   0.469   0.450   0.539   0.579   0.655   0.394   0.473   0.437   0.452   0.434   0.566   0.541   0.435   0.535   0.405   0.546   0.374   0.462   0.662   0.753   0.736   0.833   0.777   0.541   0.339
    56.00    0.559   0.693   0.534   0.573   0.491   0.410   0.637   0.472   0.409   0.511   0.502   0.451   0.516   0.577   0.378   0.399   0.367   0.665   0.453   0.406   0.526   0.549   0.412   0.460   0.386   0.468   0.647   0.840   0.944   0.902   0.602   0.450   0.462
    51.00    0.470   0.531   0.530   0.483   0.378   0.636   0.760   0.440   0.528   0.392   0.438   0.571   0.398   0.595   0.555   0.562   0.547   0.596   0.646   0.598   0.498   0.438   0.436   0.597   0.401   0.495   0.637   0.679   0.726   0.627   0.564   0.448   0.501
    46.00    0.581   0.488   0.477   0.493   0.478   0.537   0.622   0.444   0.605   0.401   0.485   0.359   0.472   0.549   0.544   0.486   0.474   0.449   0.451   0.452   0.521   0.353   0.532   0.471   0.536   0.649   0.451   0.558   0.652   0.336   0.467   0.456   0.447
    41.00    0.507   0.352   0.515   0.339   0.536   0.478   0.472   0.484   0.711   0.556   0.719   0.364   0.440   0.560   0.341   0.453   0.538   0.448   0.524   0.512   0.503   0.430   0.412   0.435   0.461   0.538   0.629   0.681   0.610   0.490   0.478   0.369   0.579
    36.00    0.621   0.719   0.448   0.507   0.572   0.467   0.439   0.513   0.633   0.706   0.743   0.537   0.523   0.406   0.443   0.488   0.418   0.508   0.341   0.467   0.462   0.397   0.397   0.450   0.618   0.406   0.665   0.684   0.519   0.425   0.362   0.406   0.623
    31.00    0.526   0.469   0.564   0.401   0.586   0.405   0.524   0.416   0.502   0.528   0.515   0.660   0.636   0.695   0.471   0.479   0.455   0.494   0.379   0.420   0.470   0.392   0.501   0.567   0.700   0.598   0.780   0.435   0.471   0.390   0.571   0.724   0.488
    26.00    0.511   0.487   0.518   0.410   0.456   0.502   0.572   0.480   0.442   0.420   0.524   0.554   0.506   0.387   0.501   0.493   0.380   0.497   0.454   0.481   0.412   0.484   0.505   0.368   0.452   0.651   0.693   0.650   0.652   0.572   0.582   0.536   0.593
    21.00    0.483   0.399   0.530   0.397   0.449   0.471   0.491   0.439   0.410   0.505   0.462   0.502   0.530   0.470   0.519   0.452   0.522   0.410   0.483   0.412   0.474   0.346   0.500   0.405   0.491   0.455   0.522   0.562   0.553   0.634   0.426   0.400   0.502
    16.00    0.410   0.473   0.520   0.513   0.428   0.439   0.395   0.449   0.546   0.668   0.558   0.475   0.525   0.342   0.342   0.450   0.452   0.617   0.408   0.471   0.417   0.535   0.401   0.473   0.389   0.487   0.363   0.613   0.417   0.593   0.446   0.542   0.397
    11.00    0.431   0.382   0.390   0.575   0.754   0.772   0.678   0.407   0.758   0.699   0.630   0.538   0.548   0.673   0.436   0.663   0.607   0.541   0.414   0.526   0.495   0.450   0.462   0.577   0.369   0.415   0.494   0.651   0.607   0.560   0.613   0.468   0.355
     6.00    0.442   0.552   0.665   0.751   0.746   0.654   0.712   0.730   0.797   0.682   0.560   0.569   0.418   0.492   0.639   0.665   0.497   0.504   0.471   0.478   0.355   0.471   0.540   0.440   0.482   0.460   0.518   0.555   0.484   0.519   0.702   0.678   0.546
     1.00    0.533   0.481   0.580   0.634   0.646   0.470   0.488   0.587   0.460   0.558   0.669   0.411   0.477   0.518   0.460   0.604   0.631   0.660   0.464   0.438   0.557   0.497   0.606   0.373   0.487   0.412   0.496   0.601   0.391   0.496   0.595   0.642   0.702

   Height   Standard deviation at grid points for the w component:
   171.00    0.394   0.403   0.345   0.339   0.391   0.409   0.443   0.353   0.421   0.350   0.397   0.382   0.351   0.324   0.466   0.389   0.575   0.403   0.377   0.364   0.416   0.443   0.384   0.345   0.403   0.449   0.439   0.507   0.478   0.484   0.350   0.359   0.350
   166.00    0.369   0.367   0.438   0.459   0.480   0.551   0.567   0.369   0.519   0.440   0.443   0.343   0.413   0.391   0.403   0.408   0.466   0.454   0.314   0.422   0.376   0.546   0.517   0.388   0.350   0.360   0.401   0.395   0.452   0.449   0.364   0.403   0.391
   161.00    0.497   0.544   0.507   0.404   0.331   0.367   0.381   0.442   0.499   0.494   0.331   0.346   0.424   0.362   0.391   0.352   0.412   0.498   0.451   0.439   0.504   0.552   0.454   0.464   0.460   0.416   0.479   0.498   0.303   0.331   0.380   0.443   0.351
   156.00    0.397   0.468   0.328   0.442   0.499   0.441   0.445   0.343   0.384   0.322   0.381   0.393   0.379   0.369   0.409   0.485   0.451   0.406   0.354   0.439   0.514   0.409   0.396   0.452   0.457   0.455   0.504   0.468   0.429   0.440   0.581   0.373   0.445
   151.00    0.407   0.415   0.349   0.529   0.529   0.340   0.397   0.381   0.380   0.383   0.433   0.350   0.405   0.350   0.433   0.456   0.416   0.379   0.423   0.371   0.353   0.420   0.356   0.418   0.396   0.482   0.551   0.337   0.406   0.442   0.559   0.492   0.466
   146.00    0.580   0.618   0.367   0.560   0.493   0.387   0.401   0.397   0.380   0.375   0.415   0.415   0.426   0.440   0.349   0.465   0.493   0.443   0.367   0.428   0.454   0.346   0.382   0.393   0.381   0.458   0.458   0.412   0.364   0.410   0.470   0.438   0.467
   141.00    0.534   0.606   0.529   0.558   0.540   0.476   0.486   0.362   0.431   0.467   0.360   0.345   0.393   0.370   0.427   0.438   0.382   0.363   0.354   0.462   0.389   0.454   0.347   0.317   0.444   0.440   0.332   0.415   0.374   0.345   0.387   0.380   0.515
   136.00    0.467   0.507   0.499   0.374   0.387   0.395   0.440   0.449   0.388   0.431   0.469   0.394   0.342   0.474   0.431   0.395   0.466   0.494   0.322   0.441   0.401   0.435   0.352   0.406   0.484   0.576   0.477   0.520   0.598   0.488   0.440   0.569   0.509
   131.00    0.454   0.483   0.588   0.435   0.458   0.329   0.351   0.320   0.387   0.390   0.409   0.344   0.352   0.445   0.490   0.460   0.414   0.398   0.481   0.461   0.374   0.322   0.353   0.367   0.433   0.529   0.433   0.437   0.485   0.511   0.495   0.410   0.577
   126.00    0.363   0.473   0.496   0.495   0.470   0.464   0.346   0.455   0.513   0.346   0.398   0.410   0.492   0.354   0.439   0.424   0.467   0.379   0.410   0.359   0.420   0.450   0.393   0.327   0.393   0.367   0.500   0.536   0.344   0.399   0.371   0.460   0.532
   121.00    0.404   0.439   0.324   0.446   0.387   0.416   0.342   0.424   0.397   0.347   0.367   0.447   0.350   0.462   0.493   0.476   0.570   0.309   0.458   0.439   0.446   0.366   0.386   0.392   0.349   0.382   0.375   0.437   0.463   0.401   0.416   0.409   0.479
   116.00    0.342   0.341   0.405   0.467   0.424   0.335   0.339   0.392   0.511   0.328   0.482   0.372   0.420   0.310   0.388   0.523   0.651   0.376   0.509   0.329   0.336   0.387   0.365   0.325   0.497   0.528   0.509   0.351   0.423   0.397   0.367   0.368   0.420
   111.00    0.536   0.381   0.368   0.376   0.401   0.334   0.548   0.646   0.589   0.380   0.501   0.372   0.417   0.362   0.323   0.485   0.537   0.665   0.519   0.554   0.321   0.338   0.518   0.469   0.513   0.474   0.360   0.426   0.349   0.408   0.379   0.366   0.389
   106.00    0.506   0.347   0.398   0.506   0.538   0.559   0.521   0.607   0.424   0.341   0.394   0.433   0.487   0.364   0.408   0.471   0.580   0.716   0.555   0.565   0.514   0.523   0.675   0.734   0.404   0.345   0.365   0.375   0.363   0.415   0.384   0.350   0.326
   101.00    0.412   0.462   0.533   0.488   0.425   0.393   0.530   0.486   0.625   0.496   0.294   0.389   0.525   0.557   0.331   0.390   0.479   0.560   0.581   0.512   0.438   0.510   0.560   0.614   0.616   0.379   0.359   0.373   0.330   0.378   0.419   0.506   0.447
    96.00    0.398   0.339   0.463   0.477   0.454   0.417   0.525   0.555   0.601   0.612   0.601   0.387   0.463   0.548   0.467   0.377   0.423   0.449   0.472   0.351   0.434   0.378   0.407   0.430   0.498   0.429   0.409   0.378   0.354   0.354   0.374   0.563   0.635
    91.00    0.560   0.371   0.346   0.457   0.407   0.395   0.408   0.443   0.538   0.473   0.512   0.465   0.433   0.459   0.518   0.497   0.480   0.410   0.395   0.403   0.369   0.368   0.399   0.361   0.441   0.495   0.405   0.455   0.510   0.362   0.369   0.496   0.563
    86.00    0.485   0.476   0.471   0.403   0.395   0.562   0.629   0.383   0.480   0.414   0.458   0.311   0.462   0.348   0.479   0.357   0.370   0.365   0.459   0.346   0.409   0.450   0.398   0.391   0.393   0.433   0.347   0.428   0.458   0.310   0.389   0.412   0.481
    81.00    0.371   0.411   0.307   0.361   0.451   0.547   0.547   0.296   0.451   0.473   0.433   0.387   0.470   0.343   0.341   0.510   0.396   0.476   0.369   0.479   0.547   0.375   0.457   0.402   0.390   0.448   0.345   0.381   0.299   0.381   0.364   0.429   0.404
    76.00    0.425   0.351   0.457   0.442   0.360   0.377   0.404   0.453   0.329   0.418   0.407   0.412   0.460   0.320   0.455   0.551   0.382   0.397   0.450   0.512   0.415   0.393   0.330   0.346   0.384   0.349   0.375   0.441   0.409   0.346   0.462   0.313   0.393
    71.00    0.596   0.461   0.542   0.493   0.573   0.516   0.385   0.490   0.497   0.315   0.354   0.396   0.524   0.378   0.470   0.430   0.425   0.389   0.337   0.444   0.330   0.525   0.473   0.545   0.351   0.368   0.379   0.363   0.422   0.470   0.506   0.380   0.443
    66.00    0.580   0.574   0.328   0.507   0.587   0.374   0.383   0.350   0.432   0.489   0.381   0.410   0.455   0.492   0.349   0.462   0.423   0.421   0.597   0.628   0.435   0.599   0.479   0.543   0.517   0.339   0.359   0.504   0.448   0.321   0.470   0.598   0.533
    61.00    0.493   0.519   0.531   0.519   0.532   0.443   0.338   0.488   0.439   0.337   0.471   0.538   0.455   0.337   0.384   0.476   0.378   0.496   0.558   0.572   0.407   0.520   0.540   0.553   0.360   0.404   0.483   0.513   0.299   0.397   0.373   0.424   0.510
    56.00    0.569   0.372   0.524   0.634   0.428   0.338   0.342   0.486   0.498   0.396   0.375   0.395   0.487   0.385   0.457   0.447   0.329   0.414   0.392   0.424   0.455   0.490   0.487   0.422   0.461   0.434   0.393   0.394   0.507   0.418   0.390   0.408   0.386
    51.00    0.439   0.539   0.465   0.562   0.535   0.358   0.472   0.464   0.466   0.419   0.342   0.420   0.495   0.500   0.469   0.343   0.386   0.397   0.496   0.349   0.437   0.311   0.446   0.406   0.394   0.335   0.390   0.457   0.433   0.544   0.482   0.404   0.357
    46.00    0.369   0.356   0.476   0.440   0.403   0.413   0.345   0.398   0.397   0.352   0.484   0.506   0.550   0.553   0.365   0.358   0.390   0.527   0.489   0.359   0.382   0.451   0.331   0.388   0.319   0.345   0.428   0.397   0.459   0.561   0.323   0.446   0.427
    41.00    0.459   0.509   0.650   0.688   0.562   0.567   0.483   0.394   0.447   0.369   0.458   0.517   0.583   0.515   0.505   0.467   0.420   0.480   0.465   0.525   0.342   0.378   0.431   0.350   0.499   0.415   0.515   0.379   0.414   0.542   0.390   0.461   0.431
    36.00    0.501   0.426   0.550   0.628   0.446   0.419   0.563   0.555   0.295   0.432   0.493   0.535   0.550   0.355   0.402   0.414   0.414   0.432   0.601   0.694   0.394   0.374   0.392   0.359   0.377   0.557   0.391   0.500   0.328   0.472   0.535   0.419   0.458
    31.00    0.524   0.452   0.446   0.553   0.556   0.379   0.451   0.498   0.339   0.367   0.330   0.479   0.449   0.339   0.337   0.434   0.450   0.484   0.541   0.618   0.598   0.315   0.383   0.339   0.466   0.600   0.515   0.487   0.552   0.448   0.384   0.481   0.447
    26.00    0.520   0.462   0.526   0.587   0.589   0.563   0.334   0.358   0.433   0.415   0.419   0.356   0.358   0.384   0.416   0.454   0.360   0.393   0.458   0.582   0.436   0.498   0.470   0.503   0.490   0.446   0.432   0.372   0.456   0.383   0.452   0.536   0.315
    21.00    0.480   0.377   0.419   0.445   0.449   0.450   0.340   0.343   0.425   0.554   0.317   0.371   0.449   0.378   0.364   0.381   0.345   0.452   0.363   0.566   0.606   0.496   0.378   0.469   0.425   0.487   0.464   0.342   0.447   0.540   0.585   0.424   0.492
    16.00    0.507   0.325   0.398   0.357   0.385   0.378   0.359   0.365   0.447   0.536   0.399   0.432   0.402   0.452   0.488   0.325   0.442   0.433   0.361   0.506   0.564   0.648   0.399   0.327   0.332   0.349   0.387   0.359   0.419   0.431   0.388   0.391   0.461
    11.00    0.518   0.337   0.335   0.344   0.449   0.367   0.479   0.391   0.383   0.437   0.507   0.326   0.398   0.487   0.520   0.325   0.421   0.424   0.395   0.343   0.440   0.489   0.480   0.419   0.424   0.416   0.358   0.421   0.348   0.354   0.401   0.423   0.399
     6.00    0.502   0.538   0.434   0.362   0.398   0.397   0.388   0.343   0.402   0.367   0.453   0.331   0.454   0.402   0.461   0.464   0.348   0.373   0.483   0.450   0.397   0.369   0.321   0.361   0.408   0.340   0.360   0.355   0.404   0.393   0.327   0.412   0.316
     1.00    0.442   0.489   0.367   0.431   0.410   0.449   0.346   0.389   0.422   0.390   0.399   0.379   0.493   0.425   0.506   0.416   0.357   0.357   0.465   0.520   0.390   0.446   0.358   0.461   0.418   0.517   0.360   0.388   0.327   0.399   0.461   0.373   0.398

   Mean standard deviation across all grid points:
      u component:    0.486 m/s
      v component:    0.516 m/s
      w component:    0.433 m/s


U-component (X) statistics from the interpolated hub point:

   Mean =  10.0559 m/s
   TI   =   4.1455 %


Processing complete.  1.7022 CPU seconds used.
