
This summary file was generated by TurbSim (from OpenFAST-v3.4.1-dirty) on 14-Dec-2023 at 13:50:59.


Runtime Options:

   2318573  Random seed #1
    RANLUX  Type of random number generator
         F  Output binary HH turbulence parameters?
         F  Output formatted turbulence parameters?
         F  Output AeroDyn HH files?
         T  Output AeroDyn FF files?
         F  Output BLADED FF files?
         F  Output tower data?
         F  Output HAWC FF files?
         F  Output formatted FF files?
         T  Output coherent turbulence time step file?
 0 -  NONE  IEC turbulence models scaled to exact specified standard deviation


Turbine/Model Specifications:

        35  Vertical grid-point matrix dimension
        33  Horizontal grid-point matrix dimension
     0.300  Time step [seconds]
    10.000  Analysis time [seconds]
    10.000  Usable output time [seconds]
    91.000  Hub height [m]
   170.000  Grid height [m]
   160.000  Grid width [m]
     0.000  Vertical flow angle [degrees]
     0.000  Horizontal flow angle [degrees]


Meteorological Boundary Conditions:

    TIMESR  User-input time series spectral model
       N/A  IEC standard
       N/A  IEC turbulence characteristic
       N/A  IEC turbulence type
       N/A  IEC Extreme Turbulence Model (ETM) "c" parameter [m/s]
       PL   Wind profile type
    88.500  Reference height [m]
    10.000  Reference wind speed [m/s]
       N/A  Jet height [m]
     0.200  Power law exponent
     0.030  Surface roughness length [m]


Non-IEC Meteorological Boundary Conditions:

    45.000  Site latitude [degrees]
     0.050  Gradient Richardson number
     0.481  Friction or shear velocity [m/s]
       N/A  Mixing layer depth [m]
       N/A  Mean hub u'w' Reynolds stress
       N/A  Mean hub u'v' Reynolds stress
       N/A  Mean hub v'w' Reynolds stress


Spatial Coherence Models:

       IEC  u-component coherence model
       IEC  v-component coherence model
       IEC  w-component coherence model
(   12.000, 0.353E-03)  u-component coherence parameters
(   12.000, 0.353E-03)  v-component coherence parameters
(   12.000, 0.353E-03)  w-component coherence parameters
       N/A  Coherence exponent


Coherent Turbulence Scaling Parameters:

.\EventData
            Name of the path containing the coherent turbulence data files
       les  Type of coherent turbulence data files
     1.000  Disturbance scale (ratio of wave height to rotor diameter)
     0.500  Fractional location of tower centerline from right
     0.500  Fractional location of hub height from the bottom of the dataset
    30.000  Minimum start time for coherent structures [seconds]


Profiles from User-Defined Time-Series Input:

  Height   Wind Speed   Horizontal Angle   Vertical Angle
   (m)        (m/s)          (deg)              (deg)    
  ------   ----------   ----------------   --------------
   76.00       9.70          -0.00               -0.00


You have requested that the following file(s) be generated:

   ./Test/Cond00_v10.0_PL0.2_TI10/Case0_wdirp00/Seed_0/TurbSim/HighT2.bts (AeroDyn/TurbSim full-field wind file)


Turbulence Simulation Scaling Parameter Summary:

   Turbulence model used                            =  User-input time series
   Gradient Richardson number                       =    0.050
   Monin-Obukhov (M-O) z/L parameter                =    0.067
   Monin-Obukhov (M-O) length scale                 = 1365.000 m
   Mean wind speed at hub height                    =   10.056 m/s

   Wind profile type                                =  Power law
   Power law exponent                               =    0.200
   Mean shear across rotor disk                     =    0.030 (m/s)/m
   Assumed rotor diameter                           =  160.000 m
   Surface roughness length                         =    0.030 m

   Nyquist frequency of turbulent wind field        =    1.667 Hz

   Number of time steps in the FFT                  =       34
   Number of time steps output                      =       34
   Number of points simulated                       =     1156


Mean Flow Angles:

   Vertical   =   0.0 degrees
   Horizontal =   0.0 degrees

Mean Wind Speed Profile:

   Height    Wind Speed   Horizontal Angle  Vertical Angle  U-comp (X)   V-comp (Y)   W-comp (Z)
     (m)        (m/s)         (degrees)       (degrees)       (m/s)        (m/s)        (m/s)   
   ------    ----------   ----------------  --------------  ----------   ----------   ----------
    171.0       11.41            0.00            0.00         11.41         0.00         0.00
    166.0       11.34            0.00            0.00         11.34         0.00         0.00
    161.0       11.27            0.00            0.00         11.27         0.00         0.00
    156.0       11.20            0.00            0.00         11.20         0.00         0.00
    151.0       11.13            0.00            0.00         11.13         0.00         0.00
    146.0       11.05            0.00            0.00         11.05         0.00         0.00
    141.0       10.98            0.00            0.00         10.98         0.00         0.00
    136.0       10.90            0.00            0.00         10.90         0.00         0.00
    131.0       10.82            0.00            0.00         10.82         0.00         0.00
    126.0       10.73            0.00            0.00         10.73         0.00         0.00
    121.0       10.65            0.00            0.00         10.65         0.00         0.00
    116.0       10.56            0.00            0.00         10.56         0.00         0.00
    111.0       10.46            0.00            0.00         10.46         0.00         0.00
    106.0       10.37            0.00            0.00         10.37         0.00         0.00
    101.0       10.27            0.00            0.00         10.27         0.00         0.00
     96.0       10.16            0.00            0.00         10.16         0.00         0.00
     91.0       10.06            0.00            0.00         10.06         0.00         0.00
     86.0        9.94            0.00            0.00          9.94         0.00         0.00
     81.0        9.82            0.00            0.00          9.82         0.00         0.00
     76.0        9.70            0.00            0.00          9.70         0.00         0.00
     71.0        9.57            0.00            0.00          9.57         0.00         0.00
     66.0        9.43            0.00            0.00          9.43         0.00         0.00
     61.0        9.28            0.00            0.00          9.28         0.00         0.00
     56.0        9.13            0.00            0.00          9.13         0.00         0.00
     51.0        8.96            0.00            0.00          8.96         0.00         0.00
     46.0        8.77            0.00            0.00          8.77         0.00         0.00
     41.0        8.57            0.00            0.00          8.57         0.00         0.00
     36.0        8.35            0.00            0.00          8.35         0.00         0.00
     31.0        8.11            0.00            0.00          8.11         0.00         0.00
     26.0        7.83            0.00            0.00          7.83         0.00         0.00
     21.0        7.50            0.00            0.00          7.50         0.00         0.00
     16.0        7.10            0.00            0.00          7.10         0.00         0.00
     11.0        6.59            0.00            0.00          6.59         0.00         0.00
      6.0        5.84            0.00            0.00          5.84         0.00         0.00
      1.0        4.08            0.00            0.00          4.08         0.00         0.00


Harvested Random Seeds after Generation of the Random Numbers:

       547700 K 1
            0 K 2


Hub-Height Simulated Turbulence Statistical Summary:

   Type of Wind        Min (m/s)   Mean (m/s)    Max (m/s)  Sigma (m/s)       TI (%)
   ----------------    ---------   ----------    ---------  -----------       ------
   Longitudinal (u)         9.25        10.06        10.99        0.414        4.114
   Lateral (v)             -0.66         0.00         0.74        0.401        3.991
   Vertical (w)            -0.82         0.00         1.07        0.485        4.826
   U component              9.25        10.06        10.99        0.414        4.114
   V component             -0.66         0.00         0.74        0.401        3.991
   W component             -0.82         0.00         1.07        0.485        4.826
   Horizontal (U&V)         9.25        10.06        10.99        0.415        4.119
   Total                    9.25        10.08        10.99        0.415        4.116

                       Min Reynolds     Mean Reynolds    Max Reynolds    Correlation
   Product             Stress (m/s)^2   Stress (m/s)^2   Stress (m/s)^2  Coefficient
   ----------------    --------------   --------------   --------------  -----------
   u'w'                     -0.475            -0.089             0.236        -0.445
   u'v'                     -0.451             0.007             0.270         0.044
   v'w'                     -0.414             0.025             0.390         0.129


   Friction Velocity (Ustar)  =      0.299 m/s
   Maximum Instantaneous TKE  =      0.684 (m/s)^2
   Maximum Instantaneous CTKE =      0.339 (m/s)^2


Grid Point Variance Summary:

   Y-coord  -80.00  -75.00  -70.00  -65.00  -60.00  -55.00  -50.00  -45.00  -40.00  -35.00  -30.00  -25.00  -20.00  -15.00  -10.00   -5.00    0.00    5.00   10.00   15.00   20.00   25.00   30.00   35.00   40.00   45.00   50.00   55.00   60.00   65.00   70.00   75.00   80.00

   Height   Standard deviation at grid points for the u component:
   171.00    0.392   0.514   0.542   0.675   0.616   0.421   0.509   0.398   0.485   0.393   0.475   0.356   0.316   0.418   0.572   0.367   0.382   0.352   0.515   0.403   0.490   0.358   0.388   0.396   0.454   0.634   0.581   0.597   0.400   0.418   0.466   0.444   0.472
   166.00    0.383   0.459   0.315   0.522   0.560   0.359   0.364   0.437   0.441   0.548   0.325   0.572   0.603   0.307   0.472   0.461   0.423   0.355   0.494   0.401   0.501   0.369   0.334   0.460   0.413   0.502   0.406   0.417   0.389   0.361   0.445   0.368   0.424
   161.00    0.395   0.450   0.379   0.378   0.557   0.381   0.407   0.491   0.598   0.579   0.566   0.479   0.446   0.507   0.423   0.407   0.350   0.534   0.486   0.460   0.443   0.391   0.396   0.479   0.639   0.399   0.475   0.296   0.445   0.477   0.565   0.359   0.437
   156.00    0.345   0.556   0.572   0.579   0.539   0.527   0.616   0.402   0.519   0.402   0.458   0.392   0.334   0.439   0.464   0.449   0.446   0.523   0.452   0.411   0.431   0.297   0.519   0.381   0.589   0.479   0.592   0.384   0.402   0.473   0.485   0.340   0.480
   151.00    0.548   0.522   0.443   0.457   0.391   0.413   0.515   0.401   0.544   0.438   0.329   0.363   0.451   0.482   0.292   0.429   0.313   0.342   0.329   0.462   0.410   0.417   0.596   0.535   0.561   0.460   0.539   0.550   0.448   0.527   0.327   0.396   0.450
   146.00    0.469   0.545   0.580   0.581   0.495   0.454   0.444   0.349   0.347   0.465   0.535   0.415   0.470   0.531   0.548   0.373   0.455   0.401   0.473   0.541   0.431   0.548   0.646   0.537   0.594   0.455   0.501   0.562   0.475   0.411   0.528   0.605   0.581
   141.00    0.421   0.420   0.588   0.611   0.405   0.380   0.408   0.435   0.546   0.349   0.435   0.396   0.416   0.594   0.526   0.351   0.347   0.414   0.331   0.399   0.342   0.527   0.525   0.379   0.388   0.587   0.581   0.384   0.518   0.417   0.510   0.536   0.407
   136.00    0.435   0.454   0.556   0.662   0.456   0.401   0.376   0.500   0.576   0.349   0.483   0.681   0.416   0.463   0.418   0.453   0.455   0.415   0.429   0.400   0.512   0.491   0.428   0.494   0.573   0.603   0.442   0.566   0.387   0.376   0.367   0.433   0.494
   131.00    0.466   0.577   0.618   0.570   0.434   0.549   0.427   0.469   0.476   0.410   0.493   0.582   0.561   0.553   0.314   0.503   0.382   0.443   0.346   0.466   0.428   0.500   0.365   0.482   0.663   0.396   0.558   0.614   0.567   0.562   0.542   0.426   0.369
   126.00    0.309   0.373   0.422   0.398   0.508   0.480   0.396   0.388   0.500   0.530   0.619   0.344   0.418   0.383   0.339   0.384   0.388   0.321   0.475   0.502   0.386   0.397   0.390   0.411   0.536   0.637   0.590   0.570   0.466   0.555   0.596   0.516   0.458
   121.00    0.485   0.462   0.396   0.404   0.445   0.351   0.509   0.410   0.504   0.456   0.526   0.528   0.394   0.405   0.371   0.502   0.509   0.604   0.592   0.302   0.397   0.413   0.547   0.407   0.503   0.459   0.514   0.459   0.485   0.470   0.588   0.548   0.392
   116.00    0.379   0.426   0.413   0.426   0.598   0.517   0.488   0.418   0.577   0.371   0.467   0.330   0.362   0.440   0.388   0.440   0.538   0.628   0.604   0.387   0.350   0.445   0.537   0.440   0.347   0.359   0.367   0.397   0.396   0.504   0.565   0.531   0.554
   111.00    0.494   0.432   0.313   0.567   0.626   0.619   0.375   0.387   0.442   0.569   0.354   0.382   0.374   0.426   0.441   0.549   0.600   0.631   0.497   0.409   0.418   0.366   0.475   0.398   0.489   0.407   0.418   0.308   0.530   0.495   0.406   0.495   0.505
   106.00    0.419   0.448   0.583   0.621   0.429   0.476   0.457   0.530   0.478   0.437   0.405   0.367   0.324   0.436   0.577   0.561   0.650   0.575   0.489   0.473   0.504   0.436   0.367   0.388   0.501   0.396   0.335   0.369   0.449   0.494   0.386   0.392   0.383
   101.00    0.369   0.384   0.432   0.608   0.591   0.536   0.330   0.499   0.553   0.394   0.369   0.465   0.422   0.387   0.482   0.605   0.633   0.458   0.372   0.506   0.456   0.506   0.412   0.504   0.459   0.339   0.418   0.491   0.382   0.384   0.342   0.463   0.549
    96.00    0.411   0.358   0.500   0.557   0.551   0.624   0.449   0.398   0.558   0.367   0.432   0.380   0.532   0.530   0.308   0.401   0.437   0.371   0.358   0.398   0.425   0.353   0.457   0.544   0.397   0.364   0.426   0.514   0.327   0.362   0.468   0.429   0.474
    91.00    0.375   0.358   0.370   0.415   0.346   0.522   0.673   0.505   0.521   0.622   0.639   0.513   0.551   0.428   0.436   0.369   0.414   0.423   0.433   0.586   0.325   0.403   0.417   0.397   0.385   0.363   0.378   0.335   0.489   0.459   0.493   0.373   0.396
    86.00    0.384   0.388   0.408   0.352   0.379   0.479   0.581   0.584   0.391   0.473   0.464   0.339   0.486   0.593   0.271   0.461   0.631   0.695   0.486   0.535   0.369   0.503   0.307   0.377   0.389   0.409   0.388   0.512   0.286   0.493   0.510   0.458   0.543
    81.00    0.405   0.440   0.463   0.312   0.405   0.392   0.478   0.669   0.714   0.680   0.529   0.551   0.465   0.523   0.538   0.331   0.489   0.521   0.493   0.628   0.620   0.383   0.516   0.416   0.438   0.343   0.348   0.485   0.478   0.581   0.561   0.398   0.458
    76.00    0.649   0.341   0.454   0.568   0.542   0.460   0.560   0.552   0.552   0.522   0.463   0.379   0.411   0.327   0.346   0.452   0.474   0.393   0.356   0.399   0.532   0.590   0.403   0.421   0.310   0.450   0.412   0.435   0.385   0.505   0.371   0.359   0.409
    71.00    0.646   0.606   0.349   0.406   0.519   0.508   0.566   0.425   0.364   0.426   0.386   0.471   0.472   0.478   0.482   0.543   0.395   0.487   0.387   0.402   0.376   0.514   0.365   0.364   0.360   0.368   0.364   0.471   0.518   0.451   0.456   0.364   0.376
    66.00    0.587   0.626   0.375   0.374   0.411   0.507   0.530   0.582   0.390   0.436   0.382   0.431   0.459   0.496   0.452   0.401   0.425   0.503   0.552   0.480   0.353   0.396   0.469   0.348   0.452   0.519   0.447   0.453   0.507   0.582   0.653   0.551   0.471
    61.00    0.545   0.609   0.526   0.292   0.395   0.391   0.466   0.397   0.413   0.438   0.487   0.524   0.407   0.501   0.402   0.374   0.367   0.464   0.530   0.311   0.504   0.464   0.400   0.424   0.357   0.416   0.351   0.533   0.635   0.410   0.561   0.504   0.339
    56.00    0.579   0.437   0.533   0.621   0.482   0.331   0.463   0.416   0.325   0.428   0.396   0.350   0.410   0.435   0.423   0.483   0.317   0.401   0.432   0.303   0.357   0.448   0.483   0.380   0.448   0.355   0.480   0.531   0.452   0.430   0.532   0.396   0.390
    51.00    0.428   0.452   0.466   0.459   0.371   0.454   0.418   0.414   0.391   0.350   0.358   0.549   0.600   0.338   0.471   0.564   0.516   0.467   0.424   0.524   0.466   0.438   0.420   0.336   0.369   0.339   0.423   0.560   0.347   0.385   0.518   0.370   0.355
    46.00    0.358   0.397   0.397   0.306   0.403   0.414   0.388   0.454   0.459   0.407   0.430   0.434   0.381   0.527   0.625   0.661   0.363   0.472   0.430   0.566   0.490   0.516   0.605   0.313   0.434   0.517   0.527   0.572   0.358   0.532   0.467   0.367   0.500
    41.00    0.592   0.486   0.351   0.579   0.385   0.296   0.338   0.439   0.364   0.431   0.388   0.442   0.542   0.513   0.557   0.569   0.466   0.442   0.523   0.626   0.490   0.512   0.384   0.406   0.380   0.384   0.467   0.621   0.449   0.526   0.467   0.350   0.398
    36.00    0.553   0.490   0.636   0.602   0.657   0.505   0.437   0.418   0.398   0.384   0.503   0.510   0.403   0.463   0.417   0.436   0.423   0.562   0.615   0.551   0.443   0.543   0.532   0.373   0.329   0.424   0.360   0.496   0.504   0.499   0.369   0.556   0.338
    31.00    0.465   0.463   0.497   0.429   0.462   0.503   0.507   0.392   0.535   0.367   0.453   0.441   0.306   0.407   0.403   0.428   0.443   0.484   0.623   0.690   0.405   0.452   0.412   0.386   0.437   0.475   0.600   0.375   0.476   0.447   0.347   0.466   0.610
    26.00    0.417   0.325   0.407   0.409   0.375   0.384   0.553   0.592   0.655   0.640   0.356   0.351   0.417   0.378   0.368   0.347   0.397   0.338   0.479   0.530   0.478   0.374   0.417   0.460   0.437   0.408   0.512   0.313   0.377   0.401   0.441   0.342   0.528
    21.00    0.459   0.414   0.393   0.484   0.365   0.589   0.493   0.632   0.541   0.541   0.489   0.369   0.495   0.384   0.374   0.346   0.448   0.437   0.513   0.539   0.297   0.405   0.348   0.378   0.326   0.387   0.361   0.498   0.318   0.387   0.419   0.338   0.527
    16.00    0.455   0.333   0.387   0.575   0.587   0.511   0.551   0.612   0.336   0.416   0.395   0.465   0.458   0.349   0.301   0.346   0.536   0.324   0.451   0.476   0.391   0.413   0.427   0.544   0.455   0.468   0.287   0.455   0.490   0.368   0.373   0.278   0.461
    11.00    0.382   0.473   0.441   0.545   0.490   0.407   0.426   0.520   0.460   0.335   0.366   0.370   0.445   0.503   0.449   0.530   0.556   0.484   0.532   0.475   0.403   0.385   0.464   0.436   0.314   0.421   0.648   0.414   0.391   0.434   0.516   0.474   0.461
     6.00    0.476   0.459   0.451   0.475   0.420   0.343   0.468   0.533   0.417   0.333   0.416   0.412   0.433   0.426   0.463   0.596   0.587   0.476   0.571   0.585   0.392   0.419   0.388   0.394   0.443   0.621   0.626   0.549   0.515   0.455   0.487   0.454   0.432
     1.00    0.464   0.535   0.499   0.326   0.372   0.484   0.499   0.531   0.434   0.496   0.434   0.405   0.464   0.446   0.458   0.553   0.540   0.418   0.485   0.560   0.610   0.378   0.412   0.405   0.333   0.428   0.539   0.577   0.437   0.478   0.362   0.426   0.466

   Height   Standard deviation at grid points for the v component:
   171.00    0.514   0.602   0.520   0.549   0.360   0.489   0.496   0.541   0.424   0.459   0.482   0.375   0.463   0.408   0.413   0.459   0.408   0.506   0.459   0.510   0.491   0.418   0.397   0.360   0.430   0.482   0.470   0.474   0.485   0.474   0.440   0.381   0.440
   166.00    0.459   0.391   0.553   0.684   0.474   0.586   0.478   0.472   0.408   0.537   0.344   0.497   0.502   0.364   0.391   0.420   0.351   0.501   0.470   0.583   0.510   0.466   0.485   0.447   0.429   0.477   0.394   0.517   0.368   0.382   0.612   0.690   0.493
   161.00    0.367   0.509   0.530   0.568   0.548   0.576   0.449   0.414   0.471   0.454   0.431   0.421   0.433   0.553   0.635   0.637   0.621   0.644   0.597   0.402   0.520   0.425   0.486   0.594   0.316   0.373   0.520   0.510   0.453   0.517   0.539   0.603   0.561
   156.00    0.436   0.465   0.417   0.446   0.416   0.432   0.441   0.371   0.414   0.379   0.536   0.337   0.615   0.534   0.585   0.478   0.603   0.400   0.424   0.548   0.508   0.599   0.648   0.423   0.448   0.417   0.515   0.500   0.664   0.481   0.517   0.530   0.497
   151.00    0.546   0.416   0.427   0.457   0.471   0.536   0.543   0.398   0.464   0.363   0.458   0.548   0.607   0.788   0.710   0.487   0.638   0.447   0.546   0.402   0.554   0.443   0.546   0.586   0.364   0.401   0.507   0.611   0.618   0.680   0.450   0.437   0.413
   146.00    0.443   0.527   0.375   0.377   0.473   0.491   0.521   0.642   0.445   0.439   0.424   0.540   0.672   0.699   0.658   0.550   0.499   0.545   0.544   0.573   0.531   0.444   0.456   0.451   0.496   0.408   0.426   0.421   0.481   0.399   0.564   0.375   0.421
   141.00    0.532   0.454   0.413   0.474   0.334   0.454   0.409   0.466   0.564   0.383   0.322   0.521   0.545   0.671   0.442   0.480   0.447   0.554   0.424   0.650   0.444   0.438   0.390   0.446   0.352   0.444   0.419   0.389   0.351   0.464   0.492   0.398   0.424
   136.00    0.463   0.530   0.333   0.414   0.432   0.402   0.443   0.404   0.446   0.550   0.357   0.540   0.608   0.678   0.416   0.403   0.448   0.395   0.617   0.687   0.480   0.401   0.446   0.469   0.523   0.457   0.355   0.494   0.438   0.360   0.405   0.557   0.622
   131.00    0.385   0.614   0.641   0.398   0.417   0.388   0.526   0.445   0.458   0.435   0.509   0.579   0.456   0.539   0.517   0.362   0.390   0.394   0.476   0.598   0.617   0.384   0.434   0.403   0.406   0.445   0.391   0.524   0.417   0.605   0.519   0.649   0.511
   126.00    0.511   0.586   0.480   0.448   0.395   0.437   0.444   0.619   0.371   0.423   0.482   0.466   0.448   0.393   0.577   0.384   0.493   0.426   0.387   0.400   0.603   0.580   0.526   0.369   0.409   0.362   0.435   0.422   0.403   0.513   0.566   0.559   0.447
   121.00    0.389   0.455   0.480   0.378   0.494   0.343   0.410   0.475   0.510   0.532   0.447   0.429   0.424   0.626   0.512   0.411   0.526   0.380   0.580   0.626   0.583   0.496   0.533   0.421   0.394   0.434   0.403   0.419   0.469   0.472   0.500   0.490   0.519
   116.00    0.538   0.416   0.461   0.353   0.338   0.422   0.513   0.421   0.467   0.403   0.430   0.500   0.604   0.564   0.446   0.492   0.470   0.416   0.462   0.523   0.388   0.454   0.340   0.434   0.500   0.378   0.524   0.424   0.470   0.449   0.375   0.453   0.367
   111.00    0.527   0.392   0.492   0.400   0.475   0.512   0.442   0.392   0.428   0.485   0.563   0.507   0.529   0.482   0.448   0.420   0.511   0.386   0.491   0.395   0.415   0.387   0.456   0.534   0.323   0.477   0.428   0.390   0.370   0.411   0.407   0.508   0.418
   106.00    0.432   0.465   0.493   0.426   0.498   0.539   0.586   0.567   0.403   0.471   0.483   0.421   0.570   0.375   0.498   0.477   0.483   0.536   0.507   0.498   0.509   0.450   0.562   0.408   0.485   0.569   0.441   0.351   0.481   0.460   0.391   0.438   0.438
   101.00    0.491   0.557   0.560   0.461   0.424   0.639   0.527   0.489   0.367   0.489   0.501   0.468   0.479   0.514   0.455   0.448   0.470   0.521   0.355   0.339   0.467   0.610   0.578   0.444   0.343   0.433   0.496   0.397   0.416   0.443   0.550   0.369   0.462
    96.00    0.373   0.370   0.456   0.398   0.516   0.612   0.645   0.596   0.525   0.505   0.448   0.420   0.540   0.455   0.379   0.433   0.519   0.471   0.553   0.685   0.705   0.562   0.443   0.399   0.421   0.451   0.468   0.454   0.450   0.463   0.551   0.580   0.574
    91.00    0.539   0.618   0.585   0.422   0.551   0.408   0.449   0.487   0.486   0.422   0.613   0.495   0.474   0.664   0.563   0.407   0.401   0.514   0.551   0.535   0.608   0.672   0.521   0.410   0.437   0.582   0.480   0.585   0.454   0.467   0.487   0.433   0.388
    86.00    0.500   0.444   0.497   0.365   0.456   0.493   0.516   0.483   0.461   0.554   0.530   0.698   0.811   0.702   0.590   0.544   0.641   0.463   0.432   0.447   0.427   0.574   0.671   0.340   0.436   0.499   0.559   0.539   0.415   0.384   0.464   0.517   0.545
    81.00    0.408   0.435   0.469   0.397   0.380   0.454   0.494   0.643   0.652   0.432   0.556   0.594   0.661   0.629   0.536   0.651   0.634   0.506   0.355   0.436   0.443   0.413   0.583   0.517   0.548   0.383   0.510   0.496   0.466   0.683   0.783   0.558   0.644
    76.00    0.459   0.410   0.506   0.454   0.402   0.416   0.454   0.537   0.491   0.386   0.440   0.464   0.523   0.537   0.348   0.538   0.645   0.560   0.455   0.426   0.527   0.421   0.467   0.529   0.583   0.337   0.432   0.435   0.370   0.567   0.586   0.574   0.669
    71.00    0.621   0.687   0.460   0.531   0.381   0.469   0.418   0.387   0.503   0.492   0.431   0.323   0.450   0.386   0.447   0.403   0.516   0.494   0.579   0.630   0.428   0.478   0.382   0.422   0.471   0.516   0.417   0.568   0.613   0.385   0.467   0.396   0.478
    66.00    0.609   0.646   0.431   0.431   0.416   0.389   0.501   0.386   0.362   0.417   0.482   0.669   0.438   0.502   0.372   0.420   0.477   0.435   0.497   0.393   0.514   0.412   0.457   0.474   0.425   0.501   0.450   0.448   0.515   0.386   0.446   0.339   0.453
    61.00    0.594   0.706   0.508   0.502   0.397   0.524   0.638   0.483   0.448   0.436   0.496   0.547   0.631   0.403   0.462   0.374   0.466   0.429   0.547   0.502   0.408   0.500   0.396   0.503   0.370   0.453   0.601   0.676   0.651   0.732   0.686   0.499   0.336
    56.00    0.510   0.617   0.507   0.534   0.463   0.402   0.583   0.458   0.397   0.487   0.471   0.446   0.497   0.555   0.381   0.383   0.369   0.633   0.453   0.398   0.502   0.515   0.394   0.433   0.375   0.447   0.583   0.745   0.836   0.795   0.549   0.425   0.437
    51.00    0.437   0.491   0.500   0.459   0.368   0.585   0.686   0.437   0.488   0.378   0.425   0.532   0.394   0.561   0.529   0.534   0.520   0.557   0.607   0.560   0.476   0.424   0.419   0.548   0.394   0.468   0.570   0.618   0.645   0.564   0.515   0.424   0.467
    46.00    0.536   0.467   0.447   0.454   0.449   0.505   0.565   0.425   0.551   0.393   0.455   0.352   0.451   0.514   0.510   0.470   0.465   0.444   0.442   0.444   0.489   0.347   0.497   0.449   0.506   0.598   0.424   0.513   0.590   0.335   0.442   0.425   0.426
    41.00    0.483   0.351   0.483   0.338   0.503   0.464   0.453   0.451   0.646   0.507   0.647   0.354   0.421   0.519   0.337   0.434   0.503   0.435   0.489   0.463   0.475   0.407   0.396   0.410   0.427   0.504   0.579   0.607   0.567   0.479   0.449   0.360   0.531
    36.00    0.572   0.652   0.429   0.474   0.520   0.452   0.424   0.488   0.571   0.637   0.670   0.489   0.490   0.382   0.433   0.470   0.401   0.481   0.336   0.438   0.446   0.380   0.393   0.440   0.563   0.394   0.602   0.617   0.479   0.419   0.356   0.387   0.564
    31.00    0.481   0.439   0.517   0.395   0.549   0.400   0.489   0.404   0.467   0.495   0.474   0.598   0.587   0.637   0.464   0.446   0.432   0.460   0.376   0.407   0.454   0.380   0.476   0.536   0.636   0.546   0.701   0.424   0.455   0.386   0.523   0.657   0.451
    26.00    0.484   0.478   0.484   0.392   0.433   0.468   0.521   0.453   0.417   0.400   0.491   0.528   0.468   0.383   0.469   0.463   0.368   0.474   0.422   0.446   0.400   0.465   0.474   0.366   0.434   0.598   0.622   0.580   0.591   0.528   0.541   0.498   0.545
    21.00    0.451   0.391   0.497   0.394   0.428   0.440   0.461   0.419   0.400   0.482   0.458   0.487   0.504   0.444   0.487   0.433   0.490   0.404   0.456   0.391   0.446   0.344   0.469   0.388   0.459   0.440   0.492   0.518   0.505   0.574   0.423   0.379   0.470
    16.00    0.390   0.445   0.489   0.479   0.423   0.406   0.391   0.442   0.501   0.607   0.519   0.462   0.491   0.338   0.338   0.438   0.416   0.555   0.391   0.459   0.399   0.508   0.381   0.436   0.379   0.464   0.363   0.551   0.407   0.551   0.423   0.503   0.391
    11.00    0.409   0.371   0.387   0.526   0.680   0.695   0.613   0.386   0.676   0.630   0.565   0.501   0.504   0.600   0.416   0.599   0.556   0.504   0.411   0.496   0.473   0.447   0.439   0.525   0.369   0.403   0.454   0.584   0.558   0.520   0.552   0.439   0.348
     6.00    0.435   0.521   0.606   0.671   0.667   0.590   0.637   0.646   0.713   0.615   0.508   0.527   0.415   0.453   0.581   0.593   0.463   0.465   0.451   0.445   0.353   0.457   0.495   0.423   0.446   0.437   0.481   0.511   0.467   0.483   0.627   0.613   0.501
     1.00    0.495   0.459   0.534   0.568   0.586   0.442   0.467   0.546   0.433   0.512   0.609   0.409   0.443   0.488   0.436   0.552   0.579   0.599   0.437   0.417   0.509   0.465   0.551   0.371   0.460   0.397   0.468   0.545   0.385   0.467   0.537   0.575   0.625

   Height   Standard deviation at grid points for the w component:
   171.00    0.395   0.406   0.343   0.338   0.389   0.408   0.447   0.351   0.423   0.351   0.397   0.383   0.352   0.322   0.468   0.388   0.580   0.404   0.377   0.366   0.416   0.443   0.383   0.345   0.403   0.449   0.438   0.508   0.483   0.489   0.350   0.357   0.350
   166.00    0.367   0.365   0.441   0.462   0.485   0.556   0.574   0.369   0.525   0.440   0.444   0.344   0.414   0.392   0.406   0.410   0.471   0.457   0.313   0.425   0.374   0.550   0.522   0.386   0.353   0.359   0.399   0.394   0.453   0.450   0.366   0.406   0.393
   161.00    0.500   0.548   0.513   0.405   0.332   0.368   0.382   0.444   0.504   0.497   0.332   0.345   0.425   0.364   0.390   0.353   0.412   0.500   0.456   0.440   0.507   0.557   0.458   0.465   0.462   0.416   0.481   0.504   0.303   0.330   0.378   0.444   0.352
   156.00    0.395   0.468   0.329   0.445   0.504   0.444   0.445   0.343   0.385   0.322   0.380   0.394   0.381   0.371   0.409   0.487   0.451   0.406   0.353   0.440   0.518   0.412   0.399   0.455   0.460   0.457   0.509   0.470   0.429   0.441   0.588   0.374   0.447
   151.00    0.408   0.415   0.348   0.533   0.532   0.340   0.397   0.382   0.380   0.384   0.436   0.349   0.405   0.350   0.435   0.458   0.417   0.381   0.427   0.369   0.354   0.422   0.355   0.421   0.399   0.485   0.558   0.337   0.406   0.445   0.565   0.497   0.468
   146.00    0.587   0.626   0.368   0.567   0.497   0.386   0.403   0.398   0.381   0.375   0.414   0.415   0.427   0.442   0.350   0.467   0.496   0.447   0.368   0.428   0.455   0.348   0.384   0.393   0.380   0.459   0.462   0.415   0.362   0.410   0.472   0.442   0.470
   141.00    0.539   0.612   0.534   0.563   0.547   0.481   0.490   0.362   0.431   0.473   0.359   0.346   0.395   0.368   0.429   0.441   0.381   0.362   0.355   0.463   0.387   0.454   0.347   0.317   0.445   0.439   0.334   0.417   0.372   0.346   0.389   0.379   0.518
   136.00    0.471   0.511   0.504   0.374   0.388   0.395   0.444   0.452   0.389   0.432   0.473   0.396   0.342   0.477   0.435   0.395   0.470   0.499   0.321   0.444   0.402   0.436   0.351   0.408   0.486   0.580   0.479   0.525   0.604   0.488   0.444   0.576   0.514
   131.00    0.454   0.490   0.593   0.438   0.458   0.329   0.353   0.321   0.388   0.390   0.410   0.345   0.351   0.447   0.492   0.460   0.418   0.398   0.485   0.465   0.374   0.322   0.353   0.367   0.435   0.534   0.432   0.441   0.487   0.514   0.498   0.413   0.583
   126.00    0.361   0.474   0.501   0.499   0.471   0.469   0.345   0.456   0.516   0.347   0.398   0.412   0.496   0.353   0.443   0.426   0.469   0.379   0.412   0.361   0.421   0.452   0.394   0.328   0.395   0.368   0.504   0.540   0.343   0.399   0.371   0.465   0.536
   121.00    0.405   0.440   0.325   0.447   0.389   0.418   0.341   0.424   0.400   0.347   0.367   0.451   0.351   0.465   0.497   0.481   0.578   0.309   0.460   0.440   0.448   0.365   0.387   0.393   0.350   0.383   0.378   0.440   0.464   0.399   0.419   0.411   0.480
   116.00    0.343   0.340   0.406   0.470   0.425   0.335   0.339   0.391   0.513   0.330   0.488   0.374   0.420   0.310   0.390   0.529   0.660   0.378   0.516   0.328   0.337   0.388   0.367   0.324   0.502   0.535   0.514   0.349   0.424   0.395   0.369   0.369   0.422
   111.00    0.540   0.379   0.369   0.377   0.403   0.333   0.553   0.652   0.593   0.382   0.506   0.373   0.417   0.362   0.322   0.490   0.545   0.674   0.522   0.559   0.322   0.338   0.524   0.472   0.518   0.476   0.361   0.427   0.351   0.408   0.379   0.368   0.391
   106.00    0.511   0.346   0.399   0.509   0.539   0.562   0.525   0.614   0.425   0.343   0.397   0.435   0.486   0.363   0.413   0.477   0.590   0.725   0.560   0.575   0.519   0.529   0.685   0.744   0.408   0.345   0.365   0.375   0.362   0.416   0.385   0.351   0.327
   101.00    0.415   0.467   0.539   0.490   0.424   0.391   0.533   0.489   0.631   0.501   0.295   0.387   0.524   0.554   0.329   0.397   0.482   0.564   0.586   0.515   0.439   0.513   0.568   0.622   0.624   0.378   0.362   0.372   0.331   0.377   0.419   0.509   0.448
    96.00    0.397   0.340   0.465   0.477   0.452   0.420   0.529   0.561   0.608   0.621   0.608   0.384   0.455   0.543   0.474   0.376   0.416   0.450   0.472   0.350   0.434   0.377   0.408   0.434   0.504   0.431   0.410   0.376   0.356   0.353   0.374   0.568   0.643
    91.00    0.565   0.370   0.346   0.458   0.407   0.392   0.411   0.448   0.546   0.476   0.514   0.456   0.434   0.465   0.523   0.496   0.485   0.417   0.390   0.402   0.369   0.370   0.399   0.362   0.444   0.497   0.408   0.458   0.513   0.362   0.370   0.501   0.570
    86.00    0.488   0.481   0.475   0.404   0.395   0.567   0.635   0.385   0.487   0.414   0.455   0.314   0.461   0.336   0.484   0.359   0.355   0.379   0.467   0.344   0.411   0.453   0.396   0.391   0.397   0.437   0.348   0.431   0.461   0.310   0.391   0.415   0.484
    81.00    0.370   0.413   0.306   0.361   0.454   0.551   0.552   0.296   0.453   0.472   0.444   0.389   0.497   0.320   0.420   0.513   0.416   0.489   0.370   0.490   0.557   0.374   0.459   0.402   0.391   0.449   0.346   0.382   0.300   0.381   0.362   0.429   0.407
    76.00    0.428   0.351   0.460   0.444   0.359   0.377   0.404   0.455   0.328   0.422   0.416   0.430   0.494   0.326   0.423   0.591   0.382   0.391   0.459   0.522   0.420   0.399   0.329   0.345   0.386   0.349   0.374   0.439   0.406   0.344   0.466   0.312   0.392
    71.00    0.604   0.465   0.547   0.498   0.581   0.520   0.386   0.491   0.497   0.314   0.358   0.404   0.521   0.388   0.424   0.467   0.462   0.361   0.329   0.457   0.331   0.533   0.478   0.551   0.352   0.368   0.379   0.362   0.424   0.474   0.510   0.383   0.445
    66.00    0.586   0.579   0.328   0.512   0.592   0.375   0.385   0.348   0.429   0.489   0.375   0.410   0.442   0.474   0.341   0.438   0.398   0.406   0.607   0.646   0.441   0.607   0.483   0.547   0.520   0.339   0.358   0.507   0.453   0.321   0.472   0.602   0.537
    61.00    0.496   0.524   0.536   0.523   0.536   0.446   0.339   0.493   0.443   0.335   0.472   0.536   0.446   0.333   0.381   0.463   0.382   0.501   0.570   0.584   0.410   0.526   0.548   0.559   0.359   0.407   0.487   0.517   0.298   0.398   0.373   0.424   0.512
    56.00    0.574   0.374   0.528   0.640   0.429   0.340   0.340   0.490   0.506   0.400   0.375   0.390   0.484   0.385   0.449   0.440   0.334   0.413   0.393   0.427   0.460   0.495   0.495   0.425   0.464   0.437   0.395   0.394   0.510   0.420   0.392   0.411   0.387
    51.00    0.442   0.543   0.470   0.567   0.542   0.357   0.475   0.468   0.473   0.423   0.341   0.426   0.497   0.501   0.472   0.341   0.386   0.394   0.496   0.347   0.437   0.312   0.450   0.405   0.394   0.336   0.389   0.459   0.435   0.551   0.486   0.406   0.356
    46.00    0.367   0.355   0.480   0.444   0.403   0.412   0.346   0.400   0.399   0.350   0.488   0.509   0.555   0.562   0.364   0.359   0.389   0.530   0.490   0.360   0.382   0.453   0.332   0.389   0.318   0.346   0.431   0.398   0.464   0.566   0.323   0.447   0.430
    41.00    0.462   0.514   0.659   0.697   0.566   0.570   0.486   0.392   0.448   0.372   0.463   0.520   0.590   0.521   0.509   0.471   0.424   0.483   0.466   0.530   0.342   0.379   0.433   0.352   0.504   0.419   0.520   0.378   0.417   0.547   0.389   0.463   0.432
    36.00    0.507   0.428   0.556   0.637   0.448   0.418   0.566   0.560   0.294   0.434   0.495   0.541   0.556   0.357   0.405   0.417   0.418   0.435   0.607   0.702   0.394   0.373   0.391   0.360   0.379   0.564   0.392   0.504   0.328   0.476   0.540   0.421   0.460
    31.00    0.530   0.454   0.448   0.560   0.563   0.377   0.451   0.500   0.339   0.368   0.330   0.481   0.454   0.339   0.337   0.437   0.451   0.485   0.545   0.625   0.604   0.315   0.384   0.340   0.471   0.608   0.521   0.492   0.558   0.453   0.386   0.484   0.449
    26.00    0.525   0.468   0.531   0.594   0.596   0.570   0.333   0.357   0.437   0.416   0.419   0.356   0.358   0.385   0.417   0.454   0.360   0.393   0.459   0.588   0.434   0.502   0.474   0.504   0.494   0.450   0.435   0.372   0.460   0.382   0.450   0.539   0.316
    21.00    0.486   0.376   0.419   0.448   0.453   0.454   0.340   0.343   0.430   0.561   0.316   0.372   0.454   0.377   0.365   0.381   0.345   0.455   0.363   0.571   0.613   0.498   0.379   0.471   0.424   0.487   0.467   0.341   0.447   0.544   0.591   0.425   0.496
    16.00    0.511   0.325   0.400   0.358   0.386   0.379   0.358   0.366   0.449   0.541   0.398   0.433   0.401   0.453   0.491   0.325   0.444   0.437   0.362   0.510   0.572   0.656   0.398   0.327   0.332   0.349   0.387   0.361   0.419   0.431   0.390   0.392   0.464
    11.00    0.524   0.336   0.337   0.345   0.452   0.366   0.481   0.391   0.382   0.440   0.509   0.325   0.397   0.487   0.526   0.323   0.420   0.425   0.396   0.343   0.442   0.493   0.484   0.421   0.427   0.418   0.358   0.423   0.348   0.356   0.400   0.423   0.399
     6.00    0.507   0.542   0.434   0.361   0.397   0.397   0.388   0.344   0.404   0.368   0.455   0.330   0.459   0.404   0.462   0.468   0.348   0.374   0.485   0.454   0.398   0.371   0.321   0.361   0.407   0.342   0.359   0.355   0.405   0.393   0.328   0.414   0.316
     1.00    0.444   0.492   0.365   0.432   0.409   0.453   0.346   0.390   0.423   0.392   0.401   0.381   0.496   0.425   0.509   0.419   0.357   0.358   0.467   0.524   0.389   0.449   0.360   0.464   0.420   0.521   0.359   0.390   0.327   0.399   0.463   0.371   0.401

   Mean standard deviation across all grid points:
      u component:    0.456 m/s
      v component:    0.483 m/s
      w component:    0.435 m/s


U-component (X) statistics from the interpolated hub point:

   Mean =  10.0559 m/s
   TI   =   4.1141 %


Processing complete.  1.6896 CPU seconds used.
