
This summary file was generated by TurbSim (from OpenFAST-v3.4.1-dirty) on 14-Dec-2023 at 13:51:15.


Runtime Options:

   2318573  Random seed #1
    RANLUX  Type of random number generator
         F  Output binary HH turbulence parameters?
         F  Output formatted turbulence parameters?
         F  Output AeroDyn HH files?
         T  Output AeroDyn FF files?
         F  Output BLADED FF files?
         F  Output tower data?
         F  Output HAWC FF files?
         F  Output formatted FF files?
         T  Output coherent turbulence time step file?
 0 -  NONE  IEC turbulence models scaled to exact specified standard deviation


Turbine/Model Specifications:

        35  Vertical grid-point matrix dimension
        33  Horizontal grid-point matrix dimension
     0.300  Time step [seconds]
    10.000  Analysis time [seconds]
    10.000  Usable output time [seconds]
    91.000  Hub height [m]
   170.000  Grid height [m]
   160.000  Grid width [m]
     0.000  Vertical flow angle [degrees]
     0.000  Horizontal flow angle [degrees]


Meteorological Boundary Conditions:

    TIMESR  User-input time series spectral model
       N/A  IEC standard
       N/A  IEC turbulence characteristic
       N/A  IEC turbulence type
       N/A  IEC Extreme Turbulence Model (ETM) "c" parameter [m/s]
       PL   Wind profile type
    88.500  Reference height [m]
    10.000  Reference wind speed [m/s]
       N/A  Jet height [m]
     0.200  Power law exponent
     0.030  Surface roughness length [m]


Non-IEC Meteorological Boundary Conditions:

    45.000  Site latitude [degrees]
     0.050  Gradient Richardson number
     0.481  Friction or shear velocity [m/s]
       N/A  Mixing layer depth [m]
       N/A  Mean hub u'w' Reynolds stress
       N/A  Mean hub u'v' Reynolds stress
       N/A  Mean hub v'w' Reynolds stress


Spatial Coherence Models:

       IEC  u-component coherence model
       IEC  v-component coherence model
       IEC  w-component coherence model
(   12.000, 0.353E-03)  u-component coherence parameters
(   12.000, 0.353E-03)  v-component coherence parameters
(   12.000, 0.353E-03)  w-component coherence parameters
       N/A  Coherence exponent


Coherent Turbulence Scaling Parameters:

.\EventData
            Name of the path containing the coherent turbulence data files
       les  Type of coherent turbulence data files
     1.000  Disturbance scale (ratio of wave height to rotor diameter)
     0.500  Fractional location of tower centerline from right
     0.500  Fractional location of hub height from the bottom of the dataset
    30.000  Minimum start time for coherent structures [seconds]


Profiles from User-Defined Time-Series Input:

  Height   Wind Speed   Horizontal Angle   Vertical Angle
   (m)        (m/s)          (deg)              (deg)    
  ------   ----------   ----------------   --------------
   76.00       9.70           0.00                0.00


You have requested that the following file(s) be generated:

   ./Test/Cond00_v10.0_PL0.2_TI10/Case0_wdirp00/Seed_0/TurbSim/HighT11.bts (AeroDyn/TurbSim full-field wind file)


Turbulence Simulation Scaling Parameter Summary:

   Turbulence model used                            =  User-input time series
   Gradient Richardson number                       =    0.050
   Monin-Obukhov (M-O) z/L parameter                =    0.067
   Monin-Obukhov (M-O) length scale                 = 1365.000 m
   Mean wind speed at hub height                    =   10.056 m/s

   Wind profile type                                =  Power law
   Power law exponent                               =    0.200
   Mean shear across rotor disk                     =    0.030 (m/s)/m
   Assumed rotor diameter                           =  160.000 m
   Surface roughness length                         =    0.030 m

   Nyquist frequency of turbulent wind field        =    1.667 Hz

   Number of time steps in the FFT                  =       34
   Number of time steps output                      =       34
   Number of points simulated                       =     1156


Mean Flow Angles:

   Vertical   =   0.0 degrees
   Horizontal =   0.0 degrees

Mean Wind Speed Profile:

   Height    Wind Speed   Horizontal Angle  Vertical Angle  U-comp (X)   V-comp (Y)   W-comp (Z)
     (m)        (m/s)         (degrees)       (degrees)       (m/s)        (m/s)        (m/s)   
   ------    ----------   ----------------  --------------  ----------   ----------   ----------
    171.0       11.41            0.00            0.00         11.41         0.00         0.00
    166.0       11.34            0.00            0.00         11.34         0.00         0.00
    161.0       11.27            0.00            0.00         11.27         0.00         0.00
    156.0       11.20            0.00            0.00         11.20         0.00         0.00
    151.0       11.13            0.00            0.00         11.13         0.00         0.00
    146.0       11.05            0.00            0.00         11.05         0.00         0.00
    141.0       10.98            0.00            0.00         10.98         0.00         0.00
    136.0       10.90            0.00            0.00         10.90         0.00         0.00
    131.0       10.82            0.00            0.00         10.82         0.00         0.00
    126.0       10.73            0.00            0.00         10.73         0.00         0.00
    121.0       10.65            0.00            0.00         10.65         0.00         0.00
    116.0       10.56            0.00            0.00         10.56         0.00         0.00
    111.0       10.46            0.00            0.00         10.46         0.00         0.00
    106.0       10.37            0.00            0.00         10.37         0.00         0.00
    101.0       10.27            0.00            0.00         10.27         0.00         0.00
     96.0       10.16            0.00            0.00         10.16         0.00         0.00
     91.0       10.06            0.00            0.00         10.06         0.00         0.00
     86.0        9.94            0.00            0.00          9.94         0.00         0.00
     81.0        9.82            0.00            0.00          9.82         0.00         0.00
     76.0        9.70            0.00            0.00          9.70         0.00         0.00
     71.0        9.57            0.00            0.00          9.57         0.00         0.00
     66.0        9.43            0.00            0.00          9.43         0.00         0.00
     61.0        9.28            0.00            0.00          9.28         0.00         0.00
     56.0        9.13            0.00            0.00          9.13         0.00         0.00
     51.0        8.96            0.00            0.00          8.96         0.00         0.00
     46.0        8.77            0.00            0.00          8.77         0.00         0.00
     41.0        8.57            0.00            0.00          8.57         0.00         0.00
     36.0        8.35            0.00            0.00          8.35         0.00         0.00
     31.0        8.11            0.00            0.00          8.11         0.00         0.00
     26.0        7.83            0.00            0.00          7.83         0.00         0.00
     21.0        7.50            0.00            0.00          7.50         0.00         0.00
     16.0        7.10            0.00            0.00          7.10         0.00         0.00
     11.0        6.59            0.00            0.00          6.59         0.00         0.00
      6.0        5.84            0.00            0.00          5.84         0.00         0.00
      1.0        4.08            0.00            0.00          4.08         0.00         0.00


Harvested Random Seeds after Generation of the Random Numbers:

       547700 K 1
            0 K 2


Hub-Height Simulated Turbulence Statistical Summary:

   Type of Wind        Min (m/s)   Mean (m/s)    Max (m/s)  Sigma (m/s)       TI (%)
   ----------------    ---------   ----------    ---------  -----------       ------
   Longitudinal (u)         9.26        10.06        10.88        0.397        3.952
   Lateral (v)             -0.70         0.00         0.79        0.413        4.105
   Vertical (w)            -0.83         0.00         0.98        0.446        4.437
   U component              9.26        10.06        10.88        0.397        3.952
   V component             -0.70         0.00         0.79        0.413        4.105
   W component             -0.83         0.00         0.98        0.446        4.437
   Horizontal (U&V)         9.26        10.06        10.89        0.397        3.948
   Total                    9.26        10.07        10.89        0.399        3.960

                       Min Reynolds     Mean Reynolds    Max Reynolds    Correlation
   Product             Stress (m/s)^2   Stress (m/s)^2   Stress (m/s)^2  Coefficient
   ----------------    --------------   --------------   --------------  -----------
   u'w'                     -0.469            -0.064             0.301        -0.362
   u'v'                     -0.371             0.002             0.241         0.012
   v'w'                     -0.395             0.020             0.334         0.111


   Friction Velocity (Ustar)  =      0.253 m/s
   Maximum Instantaneous TKE  =      0.572 (m/s)^2
   Maximum Instantaneous CTKE =      0.313 (m/s)^2


Grid Point Variance Summary:

   Y-coord  -80.00  -75.00  -70.00  -65.00  -60.00  -55.00  -50.00  -45.00  -40.00  -35.00  -30.00  -25.00  -20.00  -15.00  -10.00   -5.00    0.00    5.00   10.00   15.00   20.00   25.00   30.00   35.00   40.00   45.00   50.00   55.00   60.00   65.00   70.00   75.00   80.00

   Height   Standard deviation at grid points for the u component:
   171.00    0.422   0.573   0.604   0.746   0.694   0.457   0.562   0.401   0.523   0.393   0.521   0.360   0.319   0.455   0.634   0.386   0.400   0.358   0.556   0.422   0.546   0.375   0.417   0.420   0.487   0.702   0.645   0.672   0.411   0.451   0.511   0.460   0.496
   166.00    0.387   0.493   0.320   0.571   0.612   0.360   0.372   0.472   0.470   0.594   0.341   0.635   0.685   0.314   0.511   0.497   0.446   0.375   0.531   0.418   0.552   0.374   0.341   0.497   0.438   0.553   0.440   0.444   0.411   0.370   0.486   0.372   0.448
   161.00    0.425   0.474   0.380   0.409   0.616   0.405   0.436   0.549   0.678   0.650   0.639   0.531   0.481   0.555   0.433   0.435   0.364   0.582   0.513   0.492   0.486   0.415   0.414   0.535   0.721   0.425   0.519   0.302   0.484   0.530   0.625   0.367   0.474
   156.00    0.345   0.615   0.645   0.653   0.592   0.590   0.686   0.409   0.577   0.428   0.485   0.405   0.354   0.464   0.496   0.468   0.458   0.565   0.468   0.430   0.462   0.302   0.575   0.399   0.649   0.539   0.663   0.393   0.424   0.527   0.526   0.358   0.527
   151.00    0.608   0.585   0.487   0.492   0.391   0.448   0.568   0.420   0.606   0.468   0.334   0.368   0.471   0.508   0.294   0.469   0.321   0.344   0.334   0.502   0.431   0.441   0.669   0.590   0.633   0.493   0.586   0.624   0.488   0.580   0.343   0.418   0.478
   146.00    0.519   0.605   0.658   0.654   0.547   0.483   0.483   0.364   0.366   0.513   0.594   0.449   0.504   0.594   0.615   0.385   0.482   0.434   0.523   0.597   0.445   0.616   0.734   0.603   0.667   0.490   0.538   0.622   0.516   0.447   0.577   0.662   0.634
   141.00    0.450   0.440   0.660   0.689   0.414   0.385   0.428   0.446   0.593   0.357   0.467   0.420   0.450   0.669   0.587   0.355   0.363   0.446   0.333   0.435   0.350   0.575   0.586   0.394   0.414   0.659   0.654   0.407   0.576   0.449   0.560   0.594   0.429
   136.00    0.473   0.494   0.627   0.747   0.479   0.436   0.387   0.554   0.642   0.356   0.529   0.771   0.440   0.512   0.454   0.479   0.472   0.451   0.462   0.425   0.574   0.537   0.441   0.534   0.648   0.684   0.480   0.625   0.407   0.381   0.387   0.479   0.543
   131.00    0.499   0.629   0.688   0.628   0.460   0.595   0.476   0.502   0.499   0.443   0.544   0.649   0.631   0.616   0.324   0.557   0.394   0.481   0.350   0.517   0.466   0.551   0.365   0.534   0.756   0.422   0.612   0.687   0.634   0.621   0.601   0.460   0.373
   126.00    0.310   0.385   0.445   0.412   0.547   0.507   0.424   0.400   0.543   0.597   0.701   0.364   0.448   0.402   0.345   0.411   0.416   0.326   0.515   0.549   0.408   0.420   0.424   0.448   0.598   0.719   0.659   0.635   0.495   0.624   0.673   0.572   0.499
   121.00    0.531   0.512   0.432   0.417   0.471   0.356   0.550   0.424   0.558   0.497   0.581   0.579   0.395   0.431   0.404   0.538   0.541   0.678   0.657   0.312   0.424   0.442   0.605   0.408   0.542   0.507   0.564   0.502   0.529   0.516   0.651   0.619   0.418
   116.00    0.405   0.454   0.423   0.436   0.658   0.585   0.535   0.444   0.647   0.385   0.505   0.336   0.376   0.471   0.390   0.449   0.582   0.691   0.682   0.390   0.376   0.483   0.600   0.470   0.360   0.379   0.383   0.426   0.430   0.548   0.604   0.598   0.611
   111.00    0.541   0.446   0.318   0.632   0.702   0.693   0.389   0.401   0.480   0.643   0.358   0.405   0.386   0.465   0.466   0.600   0.676   0.705   0.541   0.440   0.439   0.395   0.510   0.433   0.540   0.433   0.461   0.314   0.584   0.536   0.408   0.515   0.535
   106.00    0.437   0.496   0.658   0.691   0.471   0.512   0.504   0.589   0.523   0.469   0.431   0.381   0.336   0.478   0.641   0.627   0.731   0.632   0.521   0.523   0.548   0.465   0.385   0.393   0.530   0.405   0.344   0.382   0.469   0.522   0.399   0.403   0.388
   101.00    0.381   0.415   0.465   0.675   0.672   0.594   0.331   0.553   0.600   0.426   0.393   0.510   0.431   0.401   0.517   0.663   0.695   0.466   0.410   0.561   0.493   0.542   0.444   0.563   0.492   0.349   0.438   0.545   0.396   0.399   0.358   0.508   0.613
    96.00    0.426   0.385   0.542   0.603   0.611   0.700   0.477   0.424   0.618   0.376   0.460   0.383   0.555   0.564   0.315   0.404   0.473   0.360   0.416   0.438   0.463   0.354   0.504   0.610   0.421   0.370   0.452   0.571   0.327   0.379   0.521   0.465   0.521
    91.00    0.381   0.375   0.383   0.449   0.350   0.579   0.751   0.544   0.581   0.697   0.716   0.549   0.581   0.438   0.501   0.375   0.397   0.499   0.502   0.699   0.326   0.461   0.469   0.428   0.400   0.378   0.396   0.351   0.536   0.493   0.538   0.388   0.405
    86.00    0.410   0.416   0.438   0.361   0.387   0.529   0.650   0.647   0.421   0.517   0.497   0.338   0.492   0.590   0.278   0.418   0.667   0.823   0.635   0.670   0.410   0.589   0.308   0.392   0.406   0.431   0.410   0.550   0.289   0.545   0.560   0.502   0.615
    81.00    0.411   0.474   0.491   0.320   0.437   0.419   0.528   0.752   0.807   0.766   0.604   0.616   0.483   0.512   0.479   0.469   0.508   0.612   0.714   0.850   0.802   0.442   0.587   0.417   0.486   0.344   0.365   0.519   0.529   0.638   0.621   0.420   0.500
    76.00    0.729   0.346   0.488   0.620   0.602   0.503   0.604   0.621   0.615   0.584   0.514   0.396   0.420   0.330   0.537   0.505   0.670   0.347   0.633   0.608   0.702   0.721   0.448   0.445   0.326   0.497   0.439   0.462   0.393   0.534   0.387   0.381   0.437
    71.00    0.730   0.679   0.353   0.430   0.577   0.562   0.629   0.440   0.388   0.457   0.434   0.526   0.538   0.596   0.605   0.716   0.539   0.370   0.375   0.392   0.449   0.619   0.405   0.373   0.371   0.395   0.372   0.493   0.541   0.452   0.478   0.384   0.390
    66.00    0.665   0.712   0.383   0.399   0.443   0.564   0.594   0.653   0.422   0.477   0.393   0.455   0.485   0.571   0.546   0.512   0.519   0.478   0.513   0.437   0.338   0.445   0.529   0.347   0.495   0.575   0.478   0.463   0.528   0.638   0.730   0.623   0.515
    61.00    0.604   0.674   0.568   0.296   0.402   0.416   0.484   0.434   0.442   0.490   0.542   0.591   0.432   0.578   0.413   0.409   0.350   0.491   0.568   0.343   0.571   0.515   0.410   0.444   0.382   0.440   0.364   0.581   0.703   0.430   0.610   0.557   0.347
    56.00    0.641   0.467   0.598   0.701   0.522   0.343   0.495   0.425   0.336   0.463   0.418   0.363   0.446   0.481   0.433   0.567   0.333   0.426   0.467   0.333   0.387   0.497   0.533   0.389   0.478   0.358   0.528   0.590   0.495   0.455   0.578   0.419   0.407
    51.00    0.455   0.481   0.516   0.501   0.386   0.481   0.433   0.426   0.412   0.370   0.370   0.597   0.669   0.348   0.517   0.630   0.591   0.533   0.437   0.565   0.492   0.463   0.430   0.341   0.384   0.346   0.464   0.628   0.346   0.419   0.569   0.391   0.369
    46.00    0.362   0.429   0.410   0.309   0.432   0.447   0.407   0.474   0.499   0.423   0.465   0.463   0.400   0.591   0.710   0.748   0.390   0.512   0.454   0.622   0.538   0.567   0.669   0.318   0.471   0.572   0.577   0.630   0.362   0.576   0.506   0.386   0.557
    41.00    0.665   0.526   0.360   0.654   0.400   0.298   0.346   0.474   0.368   0.440   0.394   0.495   0.612   0.571   0.623   0.634   0.510   0.480   0.573   0.696   0.523   0.566   0.414   0.435   0.390   0.412   0.508   0.697   0.500   0.582   0.500   0.362   0.433
    36.00    0.617   0.547   0.716   0.679   0.745   0.545   0.452   0.456   0.420   0.396   0.549   0.561   0.423   0.502   0.458   0.465   0.455   0.610   0.697   0.607   0.461   0.582   0.577   0.390   0.331   0.456   0.364   0.537   0.541   0.560   0.376   0.621   0.354
    31.00    0.503   0.500   0.544   0.455   0.512   0.544   0.539   0.411   0.590   0.393   0.493   0.474   0.315   0.439   0.429   0.464   0.469   0.526   0.696   0.775   0.428   0.474   0.429   0.410   0.469   0.527   0.668   0.404   0.517   0.474   0.349   0.507   0.688
    26.00    0.436   0.330   0.420   0.435   0.401   0.390   0.598   0.640   0.743   0.730   0.370   0.361   0.442   0.396   0.377   0.369   0.412   0.358   0.525   0.590   0.525   0.388   0.450   0.489   0.454   0.421   0.556   0.324   0.394   0.428   0.479   0.355   0.587
    21.00    0.504   0.436   0.421   0.529   0.377   0.648   0.520   0.701   0.595   0.601   0.539   0.400   0.548   0.396   0.390   0.368   0.487   0.470   0.573   0.602   0.302   0.431   0.352   0.397   0.330   0.408   0.378   0.554   0.321   0.404   0.441   0.350   0.571
    16.00    0.476   0.348   0.393   0.627   0.663   0.559   0.602   0.691   0.354   0.438   0.421   0.492   0.509   0.364   0.304   0.350   0.581   0.343   0.490   0.525   0.406   0.429   0.473   0.613   0.495   0.508   0.287   0.491   0.521   0.378   0.387   0.279   0.506
    11.00    0.386   0.502   0.464   0.603   0.545   0.438   0.461   0.566   0.502   0.343   0.385   0.379   0.477   0.538   0.465   0.576   0.609   0.519   0.593   0.521   0.410   0.413   0.496   0.454   0.325   0.461   0.725   0.435   0.391   0.459   0.578   0.512   0.497
     6.00    0.510   0.496   0.477   0.520   0.439   0.344   0.512   0.577   0.456   0.336   0.444   0.431   0.472   0.446   0.486   0.654   0.651   0.529   0.641   0.651   0.395   0.457   0.391   0.406   0.481   0.689   0.693   0.606   0.576   0.496   0.527   0.486   0.456
     1.00    0.504   0.598   0.550   0.333   0.393   0.536   0.549   0.584   0.457   0.546   0.459   0.438   0.501   0.486   0.495   0.610   0.603   0.439   0.539   0.628   0.680   0.378   0.441   0.437   0.345   0.464   0.594   0.640   0.456   0.521   0.375   0.462   0.514

   Height   Standard deviation at grid points for the v component:
   171.00    0.517   0.605   0.524   0.552   0.360   0.492   0.499   0.543   0.426   0.460   0.484   0.375   0.466   0.409   0.413   0.460   0.409   0.508   0.462   0.512   0.494   0.418   0.398   0.361   0.431   0.484   0.470   0.474   0.486   0.476   0.440   0.381   0.441
   166.00    0.460   0.392   0.556   0.690   0.475   0.589   0.480   0.473   0.408   0.539   0.343   0.499   0.506   0.364   0.391   0.420   0.351   0.503   0.471   0.586   0.511   0.467   0.487   0.449   0.430   0.479   0.394   0.519   0.368   0.383   0.615   0.695   0.496
   161.00    0.368   0.511   0.533   0.572   0.551   0.580   0.450   0.415   0.472   0.455   0.432   0.422   0.433   0.555   0.639   0.641   0.624   0.649   0.602   0.403   0.523   0.427   0.489   0.598   0.316   0.374   0.523   0.512   0.453   0.520   0.543   0.607   0.565
   156.00    0.436   0.466   0.418   0.448   0.417   0.433   0.443   0.371   0.415   0.379   0.538   0.337   0.619   0.537   0.589   0.481   0.607   0.401   0.425   0.551   0.511   0.603   0.652   0.422   0.449   0.417   0.519   0.502   0.670   0.484   0.520   0.533   0.500
   151.00    0.548   0.416   0.428   0.457   0.471   0.537   0.545   0.398   0.465   0.363   0.460   0.550   0.611   0.795   0.716   0.490   0.643   0.447   0.550   0.403   0.558   0.444   0.549   0.591   0.363   0.402   0.509   0.614   0.622   0.685   0.452   0.438   0.414
   146.00    0.444   0.529   0.375   0.378   0.474   0.494   0.522   0.646   0.445   0.441   0.425   0.543   0.677   0.705   0.663   0.553   0.502   0.548   0.547   0.577   0.534   0.446   0.458   0.453   0.499   0.408   0.426   0.422   0.484   0.399   0.566   0.375   0.422
   141.00    0.534   0.457   0.413   0.476   0.334   0.456   0.410   0.468   0.567   0.383   0.322   0.524   0.548   0.677   0.443   0.482   0.449   0.557   0.426   0.654   0.445   0.439   0.391   0.446   0.353   0.445   0.420   0.390   0.351   0.465   0.494   0.399   0.425
   136.00    0.464   0.533   0.333   0.414   0.433   0.402   0.446   0.404   0.448   0.552   0.357   0.544   0.612   0.683   0.417   0.403   0.449   0.396   0.621   0.693   0.482   0.402   0.447   0.471   0.526   0.459   0.355   0.496   0.440   0.360   0.406   0.561   0.627
   131.00    0.385   0.618   0.646   0.398   0.418   0.389   0.529   0.447   0.459   0.435   0.510   0.580   0.458   0.543   0.520   0.362   0.390   0.395   0.478   0.601   0.621   0.384   0.434   0.404   0.407   0.445   0.393   0.527   0.417   0.608   0.522   0.655   0.513
   126.00    0.513   0.589   0.483   0.449   0.395   0.437   0.446   0.623   0.371   0.423   0.485   0.466   0.449   0.394   0.581   0.385   0.494   0.426   0.387   0.400   0.606   0.584   0.530   0.369   0.410   0.362   0.436   0.423   0.403   0.517   0.569   0.562   0.449
   121.00    0.389   0.457   0.482   0.378   0.497   0.343   0.411   0.477   0.512   0.534   0.449   0.431   0.425   0.630   0.514   0.413   0.528   0.380   0.583   0.630   0.586   0.498   0.535   0.422   0.394   0.435   0.404   0.419   0.470   0.474   0.502   0.490   0.519
   116.00    0.541   0.417   0.462   0.354   0.339   0.423   0.515   0.422   0.470   0.404   0.431   0.502   0.608   0.566   0.447   0.492   0.470   0.417   0.464   0.526   0.388   0.455   0.340   0.436   0.502   0.380   0.526   0.424   0.471   0.451   0.376   0.455   0.367
   111.00    0.530   0.394   0.494   0.401   0.476   0.514   0.444   0.392   0.429   0.486   0.565   0.507   0.530   0.483   0.448   0.421   0.515   0.387   0.493   0.394   0.415   0.387   0.458   0.536   0.323   0.478   0.428   0.389   0.371   0.411   0.409   0.511   0.419
   106.00    0.433   0.464   0.494   0.426   0.500   0.541   0.590   0.570   0.403   0.472   0.485   0.420   0.569   0.376   0.498   0.480   0.491   0.545   0.513   0.501   0.509   0.450   0.565   0.408   0.487   0.572   0.441   0.352   0.482   0.461   0.392   0.438   0.439
   101.00    0.493   0.560   0.564   0.463   0.425   0.644   0.529   0.491   0.367   0.490   0.501   0.466   0.476   0.511   0.459   0.444   0.476   0.528   0.358   0.340   0.468   0.614   0.583   0.444   0.344   0.433   0.497   0.398   0.417   0.443   0.552   0.369   0.464
    96.00    0.373   0.370   0.456   0.400   0.518   0.616   0.650   0.599   0.527   0.507   0.452   0.420   0.551   0.457   0.380   0.438   0.528   0.470   0.557   0.693   0.718   0.568   0.444   0.399   0.422   0.454   0.470   0.455   0.451   0.463   0.552   0.583   0.576
    91.00    0.543   0.623   0.588   0.422   0.552   0.409   0.452   0.487   0.488   0.426   0.622   0.508   0.490   0.685   0.597   0.433   0.413   0.526   0.569   0.545   0.624   0.685   0.528   0.410   0.438   0.585   0.483   0.589   0.455   0.468   0.487   0.435   0.388
    86.00    0.502   0.445   0.499   0.365   0.456   0.495   0.518   0.484   0.466   0.559   0.532   0.712   0.837   0.716   0.617   0.500   0.624   0.482   0.429   0.468   0.441   0.590   0.683   0.342   0.440   0.503   0.562   0.542   0.417   0.384   0.465   0.518   0.547
    81.00    0.408   0.436   0.471   0.399   0.380   0.455   0.497   0.648   0.658   0.432   0.561   0.611   0.689   0.657   0.517   0.602   0.565   0.498   0.370   0.468   0.449   0.422   0.596   0.525   0.553   0.384   0.511   0.497   0.468   0.688   0.790   0.560   0.647
    76.00    0.460   0.411   0.508   0.455   0.403   0.416   0.455   0.540   0.495   0.387   0.441   0.476   0.536   0.515   0.442   0.417   0.575   0.480   0.398   0.406   0.529   0.421   0.475   0.539   0.591   0.337   0.433   0.435   0.372   0.570   0.590   0.578   0.673
    71.00    0.625   0.692   0.460   0.532   0.381   0.471   0.418   0.388   0.507   0.498   0.434   0.329   0.431   0.384   0.458   0.403   0.466   0.534   0.639   0.671   0.432   0.473   0.378   0.427   0.474   0.519   0.417   0.570   0.616   0.385   0.468   0.397   0.481
    66.00    0.613   0.651   0.432   0.431   0.416   0.390   0.503   0.386   0.363   0.419   0.478   0.661   0.431   0.476   0.359   0.419   0.447   0.464   0.510   0.430   0.542   0.411   0.461   0.479   0.423   0.503   0.450   0.449   0.517   0.387   0.448   0.339   0.455
    61.00    0.598   0.712   0.511   0.504   0.398   0.527   0.642   0.484   0.449   0.435   0.494   0.542   0.625   0.395   0.445   0.387   0.457   0.427   0.535   0.496   0.429   0.515   0.394   0.501   0.371   0.452   0.605   0.680   0.657   0.739   0.692   0.501   0.336
    56.00    0.513   0.622   0.508   0.536   0.464   0.403   0.586   0.459   0.397   0.488   0.470   0.445   0.496   0.554   0.378   0.383   0.366   0.631   0.453   0.398   0.512   0.520   0.398   0.434   0.375   0.447   0.588   0.751   0.843   0.802   0.553   0.426   0.438
    51.00    0.439   0.493   0.501   0.461   0.368   0.587   0.691   0.437   0.490   0.379   0.425   0.531   0.392   0.558   0.525   0.531   0.519   0.559   0.608   0.559   0.481   0.424   0.422   0.553   0.394   0.470   0.575   0.621   0.651   0.568   0.518   0.426   0.469
    46.00    0.538   0.468   0.449   0.456   0.451   0.506   0.568   0.426   0.555   0.393   0.457   0.352   0.450   0.514   0.510   0.468   0.466   0.443   0.443   0.445   0.494   0.347   0.499   0.451   0.509   0.601   0.426   0.515   0.593   0.335   0.444   0.427   0.427
    41.00    0.484   0.351   0.485   0.338   0.505   0.464   0.454   0.453   0.650   0.511   0.652   0.355   0.422   0.522   0.337   0.435   0.505   0.436   0.492   0.468   0.477   0.410   0.396   0.411   0.429   0.506   0.582   0.612   0.569   0.479   0.451   0.360   0.534
    36.00    0.575   0.656   0.430   0.476   0.523   0.453   0.425   0.489   0.574   0.641   0.675   0.492   0.492   0.384   0.433   0.470   0.401   0.482   0.336   0.440   0.447   0.382   0.393   0.440   0.566   0.394   0.606   0.620   0.481   0.419   0.356   0.388   0.567
    31.00    0.484   0.441   0.520   0.395   0.551   0.400   0.491   0.404   0.469   0.497   0.477   0.601   0.589   0.640   0.464   0.448   0.434   0.462   0.376   0.408   0.455   0.381   0.478   0.537   0.639   0.549   0.706   0.425   0.456   0.386   0.526   0.661   0.453
    26.00    0.485   0.478   0.485   0.393   0.434   0.470   0.524   0.454   0.418   0.401   0.493   0.529   0.470   0.383   0.471   0.464   0.369   0.475   0.424   0.448   0.400   0.466   0.476   0.366   0.434   0.601   0.626   0.584   0.594   0.531   0.543   0.500   0.548
    21.00    0.453   0.391   0.499   0.394   0.429   0.442   0.463   0.420   0.400   0.483   0.458   0.488   0.505   0.445   0.488   0.434   0.492   0.404   0.458   0.392   0.448   0.344   0.470   0.389   0.461   0.440   0.493   0.520   0.508   0.577   0.423   0.380   0.472
    16.00    0.391   0.446   0.490   0.481   0.423   0.408   0.391   0.442   0.504   0.611   0.521   0.462   0.493   0.338   0.338   0.438   0.419   0.559   0.392   0.459   0.400   0.509   0.382   0.438   0.379   0.466   0.362   0.555   0.407   0.553   0.424   0.505   0.391
    11.00    0.410   0.371   0.387   0.529   0.684   0.699   0.617   0.387   0.681   0.634   0.569   0.503   0.506   0.605   0.417   0.603   0.559   0.506   0.411   0.498   0.474   0.447   0.440   0.528   0.368   0.403   0.457   0.589   0.561   0.522   0.556   0.441   0.348
     6.00    0.435   0.523   0.610   0.676   0.672   0.594   0.642   0.651   0.718   0.619   0.512   0.529   0.414   0.455   0.584   0.597   0.465   0.467   0.451   0.447   0.353   0.457   0.498   0.424   0.448   0.438   0.483   0.514   0.468   0.485   0.632   0.617   0.504
     1.00    0.498   0.460   0.537   0.572   0.589   0.444   0.468   0.548   0.435   0.515   0.612   0.408   0.445   0.490   0.437   0.555   0.582   0.603   0.438   0.418   0.512   0.467   0.554   0.371   0.462   0.398   0.469   0.548   0.385   0.468   0.541   0.579   0.630

   Height   Standard deviation at grid points for the w component:
   171.00    0.383   0.387   0.343   0.337   0.388   0.401   0.423   0.352   0.406   0.345   0.387   0.373   0.340   0.322   0.446   0.381   0.546   0.391   0.369   0.355   0.408   0.432   0.377   0.340   0.393   0.436   0.430   0.489   0.456   0.460   0.346   0.357   0.345
   166.00    0.366   0.366   0.420   0.437   0.456   0.522   0.532   0.364   0.489   0.430   0.431   0.335   0.401   0.381   0.386   0.393   0.442   0.435   0.310   0.405   0.373   0.519   0.491   0.386   0.338   0.357   0.398   0.389   0.436   0.432   0.353   0.388   0.377
   161.00    0.476   0.516   0.479   0.392   0.325   0.358   0.370   0.427   0.473   0.471   0.328   0.342   0.412   0.350   0.386   0.343   0.402   0.481   0.428   0.424   0.483   0.523   0.432   0.446   0.443   0.409   0.460   0.471   0.300   0.329   0.378   0.431   0.343
   156.00    0.392   0.458   0.323   0.422   0.471   0.424   0.433   0.341   0.374   0.319   0.376   0.383   0.368   0.358   0.400   0.466   0.440   0.397   0.351   0.427   0.489   0.393   0.380   0.432   0.436   0.436   0.476   0.452   0.420   0.429   0.545   0.365   0.427
   151.00    0.397   0.409   0.344   0.503   0.505   0.336   0.392   0.372   0.372   0.372   0.415   0.344   0.396   0.347   0.417   0.440   0.402   0.368   0.404   0.368   0.343   0.403   0.353   0.404   0.381   0.463   0.517   0.330   0.398   0.423   0.526   0.463   0.447
   146.00    0.543   0.577   0.356   0.525   0.469   0.384   0.390   0.388   0.372   0.367   0.409   0.407   0.416   0.423   0.342   0.448   0.475   0.422   0.358   0.417   0.440   0.338   0.369   0.386   0.379   0.443   0.437   0.396   0.362   0.400   0.454   0.416   0.448
   141.00    0.504   0.571   0.500   0.527   0.507   0.453   0.464   0.359   0.423   0.440   0.355   0.337   0.381   0.368   0.414   0.420   0.376   0.359   0.345   0.445   0.386   0.444   0.340   0.313   0.432   0.430   0.326   0.401   0.372   0.338   0.374   0.375   0.494
   136.00    0.445   0.483   0.475   0.369   0.377   0.388   0.422   0.430   0.378   0.417   0.445   0.380   0.337   0.454   0.412   0.386   0.443   0.469   0.319   0.422   0.389   0.423   0.349   0.392   0.464   0.548   0.456   0.491   0.565   0.473   0.420   0.535   0.482
   131.00    0.443   0.454   0.555   0.418   0.446   0.326   0.343   0.315   0.379   0.382   0.400   0.336   0.346   0.430   0.468   0.447   0.395   0.390   0.461   0.438   0.369   0.318   0.348   0.362   0.418   0.501   0.424   0.417   0.466   0.490   0.474   0.395   0.544
   126.00    0.360   0.460   0.471   0.472   0.456   0.440   0.344   0.442   0.490   0.338   0.387   0.396   0.469   0.351   0.419   0.411   0.449   0.370   0.397   0.349   0.407   0.433   0.384   0.321   0.381   0.359   0.476   0.510   0.340   0.388   0.363   0.436   0.506
   121.00    0.393   0.427   0.318   0.434   0.372   0.403   0.338   0.414   0.381   0.341   0.360   0.428   0.345   0.445   0.469   0.453   0.534   0.307   0.440   0.425   0.426   0.365   0.375   0.380   0.343   0.372   0.362   0.421   0.449   0.394   0.400   0.396   0.465
   116.00    0.333   0.337   0.395   0.449   0.413   0.329   0.334   0.388   0.490   0.321   0.457   0.364   0.406   0.307   0.380   0.498   0.611   0.366   0.482   0.328   0.329   0.377   0.353   0.321   0.472   0.496   0.484   0.349   0.410   0.395   0.356   0.359   0.406
   111.00    0.509   0.378   0.359   0.367   0.385   0.333   0.520   0.608   0.560   0.371   0.480   0.360   0.399   0.358   0.320   0.459   0.509   0.622   0.497   0.527   0.318   0.338   0.490   0.449   0.486   0.456   0.354   0.414   0.339   0.398   0.373   0.357   0.377
   106.00    0.479   0.344   0.388   0.483   0.517   0.535   0.495   0.573   0.409   0.336   0.383   0.417   0.465   0.356   0.398   0.449   0.548   0.672   0.532   0.530   0.488   0.501   0.634   0.685   0.386   0.342   0.357   0.368   0.358   0.403   0.373   0.342   0.319
   101.00    0.395   0.439   0.502   0.470   0.417   0.389   0.502   0.462   0.586   0.473   0.294   0.373   0.487   0.513   0.330   0.392   0.468   0.531   0.550   0.488   0.429   0.493   0.529   0.577   0.579   0.374   0.347   0.366   0.326   0.374   0.408   0.482   0.432
    96.00    0.391   0.330   0.443   0.464   0.445   0.398   0.499   0.520   0.566   0.574   0.568   0.386   0.446   0.501   0.450   0.376   0.403   0.437   0.439   0.351   0.407   0.380   0.402   0.418   0.473   0.415   0.398   0.376   0.342   0.349   0.368   0.533   0.592
    91.00    0.531   0.368   0.339   0.444   0.401   0.393   0.391   0.424   0.510   0.445   0.484   0.435   0.420   0.428   0.470   0.441   0.446   0.435   0.380   0.355   0.351   0.366   0.386   0.354   0.428   0.476   0.390   0.438   0.487   0.356   0.359   0.472   0.531
    86.00    0.466   0.452   0.451   0.392   0.386   0.531   0.590   0.371   0.458   0.399   0.436   0.309   0.429   0.334   0.443   0.366   0.338   0.422   0.427   0.333   0.359   0.441   0.399   0.382   0.380   0.418   0.342   0.409   0.438   0.306   0.375   0.397   0.459
    81.00    0.367   0.395   0.303   0.356   0.434   0.520   0.515   0.295   0.437   0.458   0.426   0.389   0.477   0.293   0.407   0.461   0.421   0.437   0.374   0.435   0.503   0.387   0.458   0.399   0.381   0.437   0.338   0.369   0.295   0.374   0.360   0.419   0.387
    76.00    0.407   0.348   0.437   0.427   0.355   0.372   0.395   0.428   0.328   0.412   0.401   0.423   0.459   0.339   0.356   0.459   0.386   0.292   0.348   0.407   0.421   0.404   0.332   0.345   0.374   0.344   0.370   0.434   0.405   0.345   0.439   0.313   0.387
    71.00    0.556   0.439   0.514   0.465   0.535   0.488   0.372   0.469   0.473   0.314   0.357   0.384   0.462   0.361   0.396   0.356   0.316   0.368   0.378   0.414   0.305   0.478   0.456   0.522   0.344   0.364   0.367   0.360   0.408   0.448   0.480   0.365   0.426
    66.00    0.546   0.545   0.321   0.482   0.557   0.364   0.372   0.348   0.420   0.455   0.370   0.399   0.401   0.413   0.357   0.396   0.406   0.387   0.479   0.509   0.397   0.535   0.451   0.519   0.492   0.338   0.354   0.483   0.425   0.320   0.453   0.569   0.508
    61.00    0.470   0.492   0.505   0.493   0.507   0.420   0.334   0.467   0.424   0.332   0.443   0.502   0.423   0.320   0.394   0.429   0.368   0.434   0.488   0.501   0.371   0.470   0.495   0.521   0.358   0.391   0.460   0.489   0.299   0.386   0.366   0.414   0.489
    56.00    0.539   0.361   0.498   0.598   0.416   0.329   0.340   0.468   0.471   0.382   0.363   0.379   0.453   0.387   0.441   0.420   0.310   0.385   0.373   0.416   0.430   0.457   0.455   0.408   0.445   0.418   0.380   0.386   0.486   0.404   0.379   0.393   0.378
    51.00    0.422   0.515   0.440   0.530   0.502   0.357   0.454   0.444   0.441   0.407   0.342   0.407   0.473   0.477   0.461   0.338   0.376   0.395   0.470   0.350   0.423   0.306   0.426   0.400   0.387   0.330   0.385   0.440   0.420   0.511   0.458   0.392   0.353
    46.00    0.365   0.354   0.454   0.418   0.393   0.407   0.339   0.387   0.386   0.350   0.463   0.482   0.523   0.526   0.364   0.358   0.378   0.491   0.467   0.343   0.374   0.438   0.324   0.379   0.318   0.337   0.411   0.386   0.436   0.528   0.318   0.431   0.411
    41.00    0.438   0.483   0.605   0.641   0.535   0.541   0.461   0.389   0.433   0.358   0.437   0.493   0.548   0.491   0.488   0.446   0.395   0.454   0.446   0.492   0.338   0.368   0.417   0.338   0.475   0.399   0.487   0.374   0.402   0.514   0.385   0.444   0.418
    36.00    0.473   0.411   0.518   0.584   0.432   0.413   0.539   0.526   0.294   0.416   0.474   0.502   0.517   0.347   0.389   0.396   0.394   0.411   0.561   0.648   0.383   0.368   0.387   0.351   0.366   0.522   0.381   0.479   0.325   0.451   0.506   0.404   0.442
    31.00    0.495   0.438   0.429   0.519   0.522   0.376   0.439   0.480   0.335   0.358   0.326   0.460   0.425   0.335   0.332   0.417   0.435   0.464   0.513   0.578   0.563   0.312   0.373   0.330   0.443   0.562   0.485   0.462   0.520   0.427   0.369   0.459   0.432
    26.00    0.493   0.437   0.500   0.552   0.554   0.528   0.332   0.355   0.416   0.403   0.409   0.350   0.350   0.374   0.405   0.439   0.354   0.386   0.444   0.547   0.428   0.473   0.449   0.484   0.466   0.424   0.415   0.367   0.434   0.378   0.444   0.513   0.309
    21.00    0.454   0.373   0.407   0.428   0.428   0.428   0.334   0.340   0.405   0.522   0.316   0.363   0.426   0.374   0.356   0.371   0.340   0.435   0.356   0.536   0.569   0.475   0.368   0.453   0.417   0.474   0.446   0.341   0.436   0.515   0.552   0.412   0.470
    16.00    0.482   0.321   0.386   0.348   0.373   0.370   0.357   0.355   0.432   0.509   0.395   0.420   0.394   0.439   0.466   0.321   0.426   0.415   0.354   0.483   0.527   0.607   0.394   0.322   0.326   0.344   0.379   0.349   0.409   0.420   0.374   0.380   0.441
    11.00    0.489   0.333   0.328   0.337   0.432   0.363   0.463   0.385   0.381   0.421   0.490   0.324   0.394   0.472   0.492   0.323   0.411   0.414   0.383   0.337   0.425   0.464   0.457   0.406   0.407   0.401   0.353   0.404   0.344   0.343   0.394   0.416   0.392
     6.00    0.477   0.512   0.424   0.357   0.391   0.390   0.381   0.334   0.390   0.357   0.435   0.330   0.431   0.388   0.447   0.445   0.344   0.363   0.467   0.427   0.388   0.358   0.320   0.356   0.403   0.330   0.354   0.349   0.391   0.387   0.323   0.398   0.315
     1.00    0.425   0.468   0.364   0.417   0.400   0.428   0.342   0.376   0.407   0.379   0.387   0.367   0.470   0.414   0.483   0.399   0.352   0.350   0.447   0.494   0.386   0.428   0.349   0.444   0.404   0.492   0.358   0.378   0.322   0.388   0.446   0.368   0.381

   Mean standard deviation across all grid points:
      u component:    0.493 m/s
      v component:    0.485 m/s
      w component:    0.417 m/s


U-component (X) statistics from the interpolated hub point:

   Mean =  10.0559 m/s
   TI   =   3.9517 %


Processing complete.  1.6888 CPU seconds used.
