
This summary file was generated by TurbSim (from OpenFAST-v3.4.1-dirty) on 14-Dec-2023 at 13:50:58.


Runtime Options:

   2318573  Random seed #1
    RANLUX  Type of random number generator
         F  Output binary HH turbulence parameters?
         F  Output formatted turbulence parameters?
         F  Output AeroDyn HH files?
         T  Output AeroDyn FF files?
         F  Output BLADED FF files?
         F  Output tower data?
         F  Output HAWC FF files?
         F  Output formatted FF files?
         T  Output coherent turbulence time step file?
 0 -  NONE  IEC turbulence models scaled to exact specified standard deviation


Turbine/Model Specifications:

        35  Vertical grid-point matrix dimension
        33  Horizontal grid-point matrix dimension
     0.300  Time step [seconds]
    10.000  Analysis time [seconds]
    10.000  Usable output time [seconds]
    91.000  Hub height [m]
   170.000  Grid height [m]
   160.000  Grid width [m]
     0.000  Vertical flow angle [degrees]
     0.000  Horizontal flow angle [degrees]


Meteorological Boundary Conditions:

    TIMESR  User-input time series spectral model
       N/A  IEC standard
       N/A  IEC turbulence characteristic
       N/A  IEC turbulence type
       N/A  IEC Extreme Turbulence Model (ETM) "c" parameter [m/s]
       PL   Wind profile type
    88.500  Reference height [m]
    10.000  Reference wind speed [m/s]
       N/A  Jet height [m]
     0.200  Power law exponent
     0.030  Surface roughness length [m]


Non-IEC Meteorological Boundary Conditions:

    45.000  Site latitude [degrees]
     0.050  Gradient Richardson number
     0.481  Friction or shear velocity [m/s]
       N/A  Mixing layer depth [m]
       N/A  Mean hub u'w' Reynolds stress
       N/A  Mean hub u'v' Reynolds stress
       N/A  Mean hub v'w' Reynolds stress


Spatial Coherence Models:

       IEC  u-component coherence model
       IEC  v-component coherence model
       IEC  w-component coherence model
(   12.000, 0.353E-03)  u-component coherence parameters
(   12.000, 0.353E-03)  v-component coherence parameters
(   12.000, 0.353E-03)  w-component coherence parameters
       N/A  Coherence exponent


Coherent Turbulence Scaling Parameters:

.\EventData
            Name of the path containing the coherent turbulence data files
       les  Type of coherent turbulence data files
     1.000  Disturbance scale (ratio of wave height to rotor diameter)
     0.500  Fractional location of tower centerline from right
     0.500  Fractional location of hub height from the bottom of the dataset
    30.000  Minimum start time for coherent structures [seconds]


Profiles from User-Defined Time-Series Input:

  Height   Wind Speed   Horizontal Angle   Vertical Angle
   (m)        (m/s)          (deg)              (deg)    
  ------   ----------   ----------------   --------------
   76.00       9.70           0.00               -0.00


You have requested that the following file(s) be generated:

   ./Test/Cond00_v10.0_PL0.2_TI10/Case0_wdirp00/Seed_0/TurbSim/HighT1.bts (AeroDyn/TurbSim full-field wind file)


Turbulence Simulation Scaling Parameter Summary:

   Turbulence model used                            =  User-input time series
   Gradient Richardson number                       =    0.050
   Monin-Obukhov (M-O) z/L parameter                =    0.067
   Monin-Obukhov (M-O) length scale                 = 1365.000 m
   Mean wind speed at hub height                    =   10.056 m/s

   Wind profile type                                =  Power law
   Power law exponent                               =    0.200
   Mean shear across rotor disk                     =    0.030 (m/s)/m
   Assumed rotor diameter                           =  160.000 m
   Surface roughness length                         =    0.030 m

   Nyquist frequency of turbulent wind field        =    1.667 Hz

   Number of time steps in the FFT                  =       34
   Number of time steps output                      =       34
   Number of points simulated                       =     1156


Mean Flow Angles:

   Vertical   =   0.0 degrees
   Horizontal =   0.0 degrees

Mean Wind Speed Profile:

   Height    Wind Speed   Horizontal Angle  Vertical Angle  U-comp (X)   V-comp (Y)   W-comp (Z)
     (m)        (m/s)         (degrees)       (degrees)       (m/s)        (m/s)        (m/s)   
   ------    ----------   ----------------  --------------  ----------   ----------   ----------
    171.0       11.41            0.00            0.00         11.41         0.00         0.00
    166.0       11.34            0.00            0.00         11.34         0.00         0.00
    161.0       11.27            0.00            0.00         11.27         0.00         0.00
    156.0       11.20            0.00            0.00         11.20         0.00         0.00
    151.0       11.13            0.00            0.00         11.13         0.00         0.00
    146.0       11.05            0.00            0.00         11.05         0.00         0.00
    141.0       10.98            0.00            0.00         10.98         0.00         0.00
    136.0       10.90            0.00            0.00         10.90         0.00         0.00
    131.0       10.82            0.00            0.00         10.82         0.00         0.00
    126.0       10.73            0.00            0.00         10.73         0.00         0.00
    121.0       10.65            0.00            0.00         10.65         0.00         0.00
    116.0       10.56            0.00            0.00         10.56         0.00         0.00
    111.0       10.46            0.00            0.00         10.46         0.00         0.00
    106.0       10.37            0.00            0.00         10.37         0.00         0.00
    101.0       10.27            0.00            0.00         10.27         0.00         0.00
     96.0       10.16            0.00            0.00         10.16         0.00         0.00
     91.0       10.06            0.00            0.00         10.06         0.00         0.00
     86.0        9.94            0.00            0.00          9.94         0.00         0.00
     81.0        9.82            0.00            0.00          9.82         0.00         0.00
     76.0        9.70            0.00            0.00          9.70         0.00         0.00
     71.0        9.57            0.00            0.00          9.57         0.00         0.00
     66.0        9.43            0.00            0.00          9.43         0.00         0.00
     61.0        9.28            0.00            0.00          9.28         0.00         0.00
     56.0        9.13            0.00            0.00          9.13         0.00         0.00
     51.0        8.96            0.00            0.00          8.96         0.00         0.00
     46.0        8.77            0.00            0.00          8.77         0.00         0.00
     41.0        8.57            0.00            0.00          8.57         0.00         0.00
     36.0        8.35            0.00            0.00          8.35         0.00         0.00
     31.0        8.11            0.00            0.00          8.11         0.00         0.00
     26.0        7.83            0.00            0.00          7.83         0.00         0.00
     21.0        7.50            0.00            0.00          7.50         0.00         0.00
     16.0        7.10            0.00            0.00          7.10         0.00         0.00
     11.0        6.59            0.00            0.00          6.59         0.00         0.00
      6.0        5.84            0.00            0.00          5.84         0.00         0.00
      1.0        4.08            0.00            0.00          4.08         0.00         0.00


Harvested Random Seeds after Generation of the Random Numbers:

       547700 K 1
            0 K 2


Hub-Height Simulated Turbulence Statistical Summary:

   Type of Wind        Min (m/s)   Mean (m/s)    Max (m/s)  Sigma (m/s)       TI (%)
   ----------------    ---------   ----------    ---------  -----------       ------
   Longitudinal (u)         9.21        10.06        10.99        0.420        4.179
   Lateral (v)             -0.72        -0.00         0.90        0.441        4.383
   Vertical (w)            -0.82         0.00         0.97        0.441        4.384
   U component              9.21        10.06        10.99        0.420        4.179
   V component             -0.72        -0.00         0.90        0.441        4.383
   W component             -0.82         0.00         0.97        0.441        4.384
   Horizontal (U&V)         9.21        10.07        10.99        0.420        4.174
   Total                    9.22        10.08        10.99        0.421        4.176

                       Min Reynolds     Mean Reynolds    Max Reynolds    Correlation
   Product             Stress (m/s)^2   Stress (m/s)^2   Stress (m/s)^2  Coefficient
   ----------------    --------------   --------------   --------------  -----------
   u'w'                     -0.504            -0.093             0.196        -0.500
   u'v'                     -0.401             0.021             0.360         0.111
   v'w'                     -0.442             0.002             0.303         0.008


   Friction Velocity (Ustar)  =      0.304 m/s
   Maximum Instantaneous TKE  =      0.643 (m/s)^2
   Maximum Instantaneous CTKE =      0.330 (m/s)^2


Grid Point Variance Summary:

   Y-coord  -80.00  -75.00  -70.00  -65.00  -60.00  -55.00  -50.00  -45.00  -40.00  -35.00  -30.00  -25.00  -20.00  -15.00  -10.00   -5.00    0.00    5.00   10.00   15.00   20.00   25.00   30.00   35.00   40.00   45.00   50.00   55.00   60.00   65.00   70.00   75.00   80.00

   Height   Standard deviation at grid points for the u component:
   171.00    0.426   0.580   0.611   0.755   0.705   0.462   0.569   0.400   0.527   0.391   0.527   0.360   0.319   0.460   0.641   0.388   0.402   0.358   0.560   0.424   0.553   0.376   0.421   0.422   0.490   0.710   0.653   0.682   0.411   0.456   0.516   0.461   0.497
   166.00    0.386   0.497   0.320   0.577   0.618   0.359   0.373   0.476   0.473   0.600   0.343   0.643   0.696   0.315   0.516   0.501   0.448   0.378   0.535   0.419   0.559   0.374   0.342   0.501   0.441   0.559   0.444   0.447   0.413   0.371   0.492   0.372   0.451
   161.00    0.429   0.476   0.379   0.413   0.624   0.408   0.440   0.557   0.689   0.659   0.648   0.537   0.485   0.561   0.434   0.439   0.366   0.588   0.515   0.495   0.491   0.418   0.416   0.542   0.731   0.428   0.525   0.302   0.489   0.537   0.632   0.368   0.478
   156.00    0.344   0.622   0.654   0.663   0.599   0.599   0.694   0.408   0.584   0.431   0.487   0.406   0.356   0.467   0.500   0.470   0.458   0.570   0.469   0.432   0.466   0.303   0.583   0.401   0.657   0.547   0.672   0.394   0.426   0.534   0.531   0.360   0.533
   151.00    0.616   0.593   0.492   0.496   0.389   0.453   0.575   0.422   0.614   0.472   0.334   0.368   0.473   0.511   0.294   0.475   0.322   0.344   0.334   0.507   0.433   0.444   0.678   0.597   0.643   0.496   0.591   0.634   0.493   0.586   0.345   0.421   0.481
   146.00    0.525   0.612   0.669   0.663   0.554   0.486   0.487   0.366   0.368   0.519   0.602   0.453   0.508   0.602   0.624   0.386   0.485   0.438   0.530   0.604   0.446   0.625   0.745   0.611   0.676   0.494   0.542   0.630   0.521   0.451   0.583   0.669   0.640
   141.00    0.453   0.442   0.669   0.699   0.414   0.384   0.430   0.446   0.599   0.357   0.471   0.423   0.455   0.679   0.595   0.354   0.365   0.450   0.333   0.439   0.351   0.580   0.594   0.396   0.418   0.669   0.664   0.410   0.583   0.453   0.566   0.601   0.432
   136.00    0.478   0.499   0.637   0.758   0.481   0.441   0.388   0.561   0.651   0.357   0.534   0.783   0.443   0.519   0.459   0.482   0.472   0.456   0.465   0.429   0.583   0.543   0.441   0.539   0.658   0.694   0.485   0.632   0.409   0.381   0.389   0.485   0.549
   131.00    0.503   0.635   0.696   0.635   0.463   0.600   0.483   0.506   0.501   0.448   0.550   0.658   0.640   0.624   0.325   0.563   0.394   0.486   0.350   0.524   0.471   0.557   0.364   0.540   0.768   0.425   0.618   0.696   0.643   0.628   0.609   0.465   0.372
   126.00    0.310   0.386   0.447   0.413   0.551   0.510   0.427   0.401   0.547   0.605   0.710   0.366   0.451   0.405   0.345   0.413   0.418   0.326   0.521   0.556   0.411   0.423   0.427   0.453   0.607   0.730   0.668   0.644   0.499   0.633   0.683   0.580   0.504
   121.00    0.536   0.519   0.436   0.418   0.474   0.356   0.555   0.425   0.565   0.501   0.587   0.585   0.394   0.434   0.411   0.543   0.542   0.687   0.666   0.315   0.428   0.445   0.612   0.406   0.547   0.513   0.571   0.507   0.534   0.522   0.659   0.628   0.421
   116.00    0.408   0.457   0.424   0.436   0.666   0.594   0.542   0.446   0.655   0.386   0.508   0.337   0.377   0.471   0.390   0.446   0.583   0.699   0.695   0.391   0.377   0.486   0.607   0.473   0.361   0.382   0.384   0.430   0.434   0.553   0.609   0.607   0.618
   111.00    0.547   0.447   0.319   0.641   0.712   0.702   0.391   0.403   0.483   0.650   0.357   0.404   0.390   0.466   0.474   0.604   0.682   0.721   0.547   0.449   0.440   0.395   0.512   0.435   0.545   0.436   0.467   0.315   0.590   0.541   0.407   0.516   0.537
   106.00    0.439   0.502   0.667   0.700   0.477   0.516   0.511   0.597   0.528   0.470   0.430   0.383   0.343   0.480   0.657   0.636   0.746   0.649   0.536   0.527   0.562   0.470   0.384   0.394   0.533   0.405   0.344   0.384   0.471   0.525   0.400   0.404   0.388
   101.00    0.382   0.419   0.469   0.683   0.683   0.601   0.331   0.561   0.606   0.436   0.395   0.520   0.442   0.396   0.527   0.683   0.718   0.485   0.397   0.559   0.508   0.556   0.452   0.570   0.493   0.351   0.440   0.553   0.397   0.400   0.360   0.514   0.621
    96.00    0.428   0.389   0.547   0.609   0.619   0.710   0.482   0.429   0.630   0.380   0.473   0.384   0.582   0.574   0.307   0.428   0.474   0.376   0.391   0.435   0.472   0.363   0.501   0.612   0.419   0.371   0.456   0.579   0.326   0.381   0.528   0.469   0.526
    91.00    0.381   0.377   0.384   0.454   0.349   0.586   0.762   0.551   0.594   0.716   0.742   0.580   0.629   0.462   0.482   0.374   0.420   0.457   0.465   0.663   0.327   0.443   0.458   0.423   0.404   0.379   0.398   0.353   0.542   0.497   0.543   0.389   0.405
    86.00    0.413   0.419   0.442   0.362   0.387   0.536   0.661   0.655   0.423   0.530   0.517   0.361   0.557   0.688   0.296   0.531   0.747   0.824   0.552   0.600   0.382   0.558   0.306   0.405   0.414   0.432   0.414   0.553   0.289   0.551   0.565   0.507   0.624
    81.00    0.411   0.478   0.494   0.321   0.441   0.423   0.537   0.764   0.820   0.779   0.600   0.607   0.522   0.613   0.647   0.395   0.593   0.596   0.567   0.730   0.720   0.413   0.566   0.418   0.483   0.343   0.365   0.522   0.534   0.644   0.629   0.422   0.505
    76.00    0.739   0.346   0.492   0.626   0.610   0.507   0.610   0.631   0.623   0.591   0.498   0.382   0.438   0.346   0.383   0.642   0.630   0.418   0.377   0.435   0.608   0.673   0.428   0.451   0.322   0.497   0.441   0.465   0.392   0.537   0.389   0.383   0.440
    71.00    0.741   0.688   0.352   0.432   0.584   0.568   0.635   0.441   0.395   0.452   0.419   0.523   0.503   0.506   0.565   0.584   0.415   0.524   0.394   0.441   0.389   0.574   0.390   0.383   0.368   0.393   0.373   0.495   0.543   0.450   0.480   0.386   0.391
    66.00    0.676   0.723   0.384   0.402   0.447   0.570   0.600   0.659   0.423   0.474   0.394   0.471   0.514   0.541   0.508   0.430   0.468   0.549   0.623   0.529   0.370   0.422   0.513   0.347   0.500   0.583   0.480   0.463   0.529   0.644   0.740   0.632   0.521
    61.00    0.612   0.682   0.572   0.296   0.401   0.418   0.484   0.438   0.443   0.494   0.537   0.589   0.415   0.551   0.425   0.394   0.388   0.514   0.596   0.319   0.567   0.500   0.415   0.439   0.383   0.441   0.364   0.587   0.712   0.431   0.615   0.564   0.348
    56.00    0.648   0.470   0.606   0.711   0.527   0.345   0.497   0.426   0.335   0.463   0.415   0.360   0.438   0.473   0.432   0.541   0.321   0.428   0.456   0.318   0.386   0.493   0.536   0.387   0.485   0.357   0.534   0.598   0.501   0.457   0.583   0.421   0.409
    51.00    0.458   0.483   0.523   0.507   0.388   0.483   0.434   0.426   0.417   0.372   0.371   0.601   0.669   0.342   0.516   0.619   0.581   0.524   0.435   0.585   0.507   0.463   0.427   0.344   0.388   0.347   0.470   0.637   0.345   0.424   0.576   0.394   0.370
    46.00    0.362   0.434   0.411   0.309   0.435   0.450   0.409   0.477   0.505   0.425   0.466   0.463   0.400   0.590   0.713   0.748   0.386   0.517   0.466   0.639   0.549   0.576   0.679   0.317   0.474   0.578   0.584   0.638   0.361   0.581   0.511   0.388   0.565
    41.00    0.674   0.531   0.361   0.664   0.401   0.298   0.347   0.478   0.367   0.441   0.395   0.499   0.618   0.573   0.628   0.636   0.513   0.489   0.585   0.711   0.529   0.577   0.420   0.438   0.390   0.415   0.513   0.707   0.507   0.590   0.503   0.363   0.438
    36.00    0.625   0.554   0.726   0.689   0.756   0.549   0.452   0.461   0.422   0.396   0.554   0.567   0.423   0.505   0.461   0.465   0.456   0.616   0.708   0.616   0.464   0.587   0.582   0.392   0.330   0.460   0.364   0.542   0.545   0.568   0.376   0.630   0.356
    31.00    0.508   0.505   0.549   0.457   0.518   0.549   0.543   0.413   0.597   0.396   0.498   0.479   0.315   0.442   0.430   0.467   0.471   0.531   0.707   0.787   0.431   0.476   0.430   0.412   0.473   0.534   0.676   0.408   0.522   0.477   0.349   0.512   0.698
    26.00    0.438   0.331   0.421   0.438   0.404   0.389   0.603   0.645   0.755   0.742   0.371   0.362   0.445   0.398   0.378   0.371   0.413   0.361   0.532   0.599   0.532   0.389   0.454   0.492   0.455   0.421   0.561   0.325   0.396   0.432   0.484   0.356   0.594
    21.00    0.510   0.439   0.424   0.534   0.378   0.655   0.522   0.709   0.602   0.609   0.546   0.404   0.555   0.396   0.392   0.370   0.493   0.474   0.581   0.610   0.303   0.434   0.352   0.399   0.329   0.410   0.380   0.561   0.321   0.405   0.443   0.351   0.576
    16.00    0.478   0.350   0.392   0.633   0.673   0.565   0.608   0.702   0.356   0.440   0.425   0.495   0.516   0.366   0.304   0.350   0.587   0.345   0.495   0.532   0.408   0.430   0.480   0.622   0.500   0.512   0.287   0.496   0.524   0.379   0.389   0.279   0.511
    11.00    0.385   0.504   0.466   0.610   0.552   0.442   0.466   0.572   0.507   0.343   0.387   0.380   0.480   0.542   0.466   0.582   0.616   0.523   0.601   0.527   0.410   0.417   0.499   0.455   0.326   0.466   0.735   0.437   0.390   0.462   0.586   0.517   0.501
     6.00    0.514   0.500   0.479   0.525   0.440   0.343   0.518   0.582   0.461   0.336   0.448   0.432   0.478   0.448   0.488   0.661   0.659   0.536   0.650   0.659   0.394   0.462   0.391   0.407   0.485   0.697   0.701   0.613   0.585   0.501   0.532   0.490   0.459
     1.00    0.509   0.607   0.557   0.333   0.395   0.542   0.555   0.591   0.459   0.552   0.462   0.442   0.505   0.491   0.499   0.617   0.611   0.441   0.547   0.636   0.689   0.376   0.444   0.441   0.346   0.468   0.601   0.648   0.457   0.526   0.376   0.467   0.520

   Height   Standard deviation at grid points for the v component:
   171.00    0.551   0.652   0.570   0.593   0.362   0.531   0.535   0.574   0.444   0.479   0.514   0.376   0.502   0.425   0.424   0.478   0.426   0.541   0.494   0.546   0.538   0.425   0.406   0.368   0.444   0.513   0.478   0.487   0.504   0.501   0.452   0.382   0.464
   166.00    0.482   0.401   0.596   0.763   0.494   0.636   0.511   0.492   0.413   0.572   0.345   0.530   0.550   0.373   0.393   0.421   0.351   0.534   0.492   0.628   0.537   0.480   0.524   0.480   0.453   0.515   0.401   0.549   0.372   0.393   0.665   0.766   0.534
   161.00    0.384   0.541   0.569   0.625   0.594   0.633   0.475   0.426   0.490   0.476   0.449   0.438   0.449   0.595   0.697   0.700   0.672   0.712   0.664   0.416   0.560   0.454   0.532   0.646   0.318   0.384   0.562   0.538   0.463   0.566   0.591   0.661   0.611
   156.00    0.442   0.487   0.431   0.473   0.425   0.456   0.471   0.383   0.434   0.388   0.570   0.344   0.680   0.581   0.644   0.519   0.664   0.419   0.445   0.589   0.552   0.649   0.707   0.426   0.466   0.431   0.567   0.535   0.739   0.520   0.563   0.570   0.535
   151.00    0.582   0.423   0.446   0.474   0.481   0.564   0.575   0.405   0.487   0.368   0.491   0.588   0.674   0.886   0.795   0.528   0.701   0.456   0.597   0.421   0.606   0.462   0.591   0.648   0.365   0.423   0.546   0.663   0.685   0.748   0.484   0.460   0.428
   146.00    0.455   0.565   0.378   0.389   0.494   0.528   0.547   0.697   0.451   0.467   0.442   0.588   0.749   0.779   0.728   0.601   0.538   0.589   0.592   0.628   0.578   0.475   0.485   0.477   0.534   0.412   0.434   0.436   0.525   0.410   0.608   0.378   0.440
   141.00    0.563   0.491   0.421   0.509   0.341   0.485   0.423   0.499   0.615   0.385   0.326   0.568   0.594   0.748   0.464   0.511   0.483   0.607   0.453   0.717   0.460   0.449   0.402   0.456   0.366   0.462   0.439   0.406   0.357   0.489   0.521   0.418   0.439
   136.00    0.484   0.577   0.338   0.427   0.448   0.409   0.479   0.407   0.480   0.591   0.370   0.594   0.667   0.754   0.429   0.413   0.468   0.411   0.673   0.769   0.516   0.424   0.467   0.509   0.559   0.481   0.356   0.533   0.467   0.363   0.423   0.614   0.691
   131.00    0.393   0.670   0.712   0.404   0.430   0.408   0.574   0.472   0.477   0.442   0.531   0.606   0.488   0.594   0.559   0.365   0.403   0.413   0.509   0.646   0.677   0.387   0.447   0.417   0.422   0.456   0.417   0.567   0.419   0.653   0.568   0.723   0.548
   126.00    0.546   0.639   0.524   0.473   0.401   0.454   0.472   0.681   0.375   0.428   0.515   0.481   0.457   0.406   0.634   0.390   0.513   0.438   0.389   0.410   0.653   0.639   0.577   0.372   0.433   0.375   0.448   0.447   0.409   0.558   0.620   0.605   0.484
   121.00    0.393   0.487   0.512   0.388   0.532   0.350   0.424   0.507   0.542   0.559   0.479   0.452   0.447   0.689   0.555   0.436   0.555   0.398   0.634   0.692   0.630   0.534   0.577   0.432   0.402   0.456   0.415   0.430   0.490   0.506   0.525   0.503   0.536
   116.00    0.584   0.432   0.488   0.359   0.344   0.442   0.555   0.435   0.505   0.410   0.450   0.529   0.664   0.608   0.473   0.521   0.486   0.430   0.499   0.570   0.397   0.474   0.341   0.460   0.534   0.399   0.564   0.429   0.490   0.485   0.388   0.478   0.372
   111.00    0.566   0.413   0.521   0.422   0.499   0.539   0.471   0.396   0.442   0.508   0.612   0.534   0.555   0.506   0.465   0.446   0.558   0.400   0.531   0.409   0.432   0.390   0.490   0.576   0.324   0.500   0.440   0.392   0.384   0.416   0.430   0.548   0.432
   106.00    0.446   0.468   0.511   0.432   0.532   0.581   0.647   0.616   0.406   0.508   0.519   0.437   0.605   0.383   0.522   0.496   0.533   0.598   0.556   0.534   0.535   0.474   0.614   0.423   0.516   0.618   0.444   0.366   0.500   0.478   0.405   0.451   0.460
   101.00    0.522   0.602   0.614   0.494   0.451   0.705   0.566   0.523   0.368   0.524   0.524   0.487   0.491   0.531   0.475   0.448   0.501   0.566   0.363   0.340   0.487   0.664   0.637   0.463   0.358   0.444   0.516   0.415   0.429   0.454   0.582   0.370   0.488
    96.00    0.375   0.371   0.470   0.423   0.549   0.673   0.715   0.655   0.568   0.548   0.474   0.422   0.601   0.468   0.391   0.453   0.557   0.468   0.584   0.748   0.785   0.608   0.453   0.420   0.435   0.482   0.493   0.465   0.465   0.469   0.579   0.621   0.619
    91.00    0.592   0.684   0.641   0.426   0.582   0.431   0.488   0.510   0.522   0.453   0.689   0.568   0.542   0.769   0.687   0.484   0.441   0.536   0.582   0.555   0.668   0.747   0.562   0.425   0.456   0.626   0.522   0.635   0.472   0.479   0.498   0.459   0.392
    86.00    0.528   0.461   0.535   0.373   0.472   0.525   0.548   0.499   0.505   0.616   0.572   0.798   0.953   0.807   0.697   0.483   0.619   0.504   0.413   0.489   0.448   0.626   0.735   0.345   0.465   0.541   0.595   0.577   0.445   0.395   0.486   0.538   0.583
    81.00    0.415   0.456   0.498   0.422   0.386   0.470   0.535   0.709   0.724   0.447   0.617   0.695   0.803   0.775   0.522   0.576   0.531   0.515   0.334   0.474   0.499   0.424   0.639   0.562   0.595   0.389   0.541   0.522   0.496   0.759   0.881   0.592   0.697
    76.00    0.481   0.429   0.530   0.466   0.415   0.424   0.477   0.586   0.537   0.402   0.467   0.534   0.621   0.561   0.628   0.468   0.511   0.482   0.463   0.462   0.577   0.424   0.484   0.579   0.646   0.339   0.457   0.436   0.390   0.616   0.643   0.632   0.737
    71.00    0.687   0.759   0.475   0.553   0.387   0.503   0.427   0.401   0.545   0.548   0.451   0.351   0.413   0.429   0.541   0.512   0.443   0.529   0.553   0.660   0.452   0.491   0.394   0.435   0.490   0.560   0.419   0.605   0.664   0.393   0.489   0.415   0.513
    66.00    0.666   0.719   0.450   0.435   0.425   0.409   0.534   0.396   0.370   0.446   0.496   0.700   0.423   0.453   0.347   0.455   0.393   0.424   0.478   0.397   0.553   0.415   0.481   0.505   0.439   0.537   0.462   0.477   0.552   0.399   0.478   0.342   0.475
    61.00    0.658   0.789   0.552   0.535   0.416   0.570   0.695   0.497   0.470   0.445   0.526   0.568   0.654   0.383   0.431   0.434   0.434   0.438   0.570   0.545   0.428   0.527   0.404   0.542   0.373   0.461   0.656   0.746   0.728   0.824   0.769   0.537   0.339
    56.00    0.554   0.686   0.531   0.569   0.488   0.410   0.632   0.472   0.407   0.511   0.495   0.455   0.522   0.586   0.374   0.388   0.371   0.649   0.449   0.407   0.520   0.546   0.409   0.457   0.385   0.466   0.641   0.831   0.934   0.892   0.597   0.447   0.460
    51.00    0.467   0.527   0.527   0.480   0.377   0.631   0.753   0.439   0.525   0.392   0.438   0.566   0.394   0.589   0.543   0.558   0.534   0.582   0.637   0.593   0.494   0.437   0.434   0.591   0.400   0.492   0.631   0.673   0.718   0.621   0.560   0.446   0.498
    46.00    0.577   0.485   0.474   0.489   0.475   0.534   0.617   0.441   0.601   0.400   0.485   0.358   0.466   0.545   0.543   0.483   0.470   0.450   0.447   0.450   0.516   0.353   0.529   0.469   0.533   0.644   0.448   0.553   0.646   0.336   0.465   0.453   0.445
    41.00    0.505   0.352   0.512   0.339   0.532   0.476   0.470   0.480   0.705   0.553   0.714   0.364   0.440   0.559   0.340   0.454   0.538   0.445   0.522   0.507   0.501   0.428   0.410   0.432   0.458   0.534   0.624   0.674   0.606   0.489   0.475   0.368   0.574
    36.00    0.616   0.712   0.446   0.504   0.567   0.465   0.437   0.511   0.627   0.700   0.737   0.534   0.521   0.406   0.442   0.486   0.418   0.504   0.341   0.465   0.460   0.395   0.396   0.449   0.612   0.405   0.659   0.678   0.515   0.424   0.361   0.404   0.617
    31.00    0.522   0.466   0.559   0.400   0.582   0.405   0.520   0.415   0.499   0.525   0.512   0.655   0.631   0.689   0.471   0.476   0.453   0.490   0.378   0.418   0.468   0.390   0.499   0.563   0.693   0.593   0.772   0.434   0.469   0.389   0.567   0.717   0.485
    26.00    0.508   0.486   0.514   0.408   0.453   0.499   0.568   0.477   0.439   0.418   0.521   0.551   0.503   0.386   0.498   0.490   0.378   0.494   0.451   0.477   0.411   0.482   0.502   0.367   0.450   0.646   0.686   0.643   0.646   0.568   0.578   0.532   0.589
    21.00    0.480   0.398   0.526   0.396   0.447   0.468   0.488   0.437   0.409   0.503   0.461   0.500   0.527   0.467   0.516   0.450   0.518   0.409   0.481   0.410   0.471   0.345   0.497   0.403   0.488   0.454   0.519   0.557   0.548   0.628   0.426   0.398   0.499
    16.00    0.408   0.470   0.517   0.509   0.427   0.436   0.394   0.448   0.542   0.662   0.554   0.473   0.522   0.341   0.341   0.448   0.448   0.611   0.406   0.469   0.415   0.532   0.399   0.469   0.388   0.485   0.363   0.607   0.416   0.589   0.444   0.538   0.396
    11.00    0.429   0.380   0.390   0.570   0.747   0.765   0.672   0.405   0.750   0.692   0.623   0.534   0.544   0.666   0.434   0.657   0.602   0.537   0.413   0.523   0.492   0.449   0.460   0.572   0.369   0.414   0.490   0.644   0.602   0.556   0.607   0.465   0.354
     6.00    0.441   0.549   0.659   0.743   0.738   0.648   0.705   0.722   0.789   0.675   0.555   0.565   0.418   0.488   0.633   0.658   0.494   0.500   0.469   0.475   0.354   0.469   0.536   0.438   0.478   0.457   0.514   0.550   0.482   0.515   0.695   0.671   0.542
     1.00    0.529   0.479   0.575   0.628   0.640   0.468   0.485   0.583   0.457   0.553   0.663   0.410   0.474   0.515   0.458   0.599   0.626   0.654   0.461   0.436   0.552   0.494   0.601   0.373   0.484   0.411   0.493   0.596   0.390   0.493   0.589   0.635   0.694

   Height   Standard deviation at grid points for the w component:
   171.00    0.376   0.375   0.343   0.335   0.386   0.396   0.407   0.352   0.394   0.341   0.381   0.367   0.332   0.322   0.432   0.376   0.525   0.382   0.364   0.348   0.402   0.424   0.373   0.337   0.386   0.427   0.424   0.476   0.438   0.441   0.343   0.357   0.341
   166.00    0.364   0.365   0.407   0.421   0.438   0.500   0.504   0.360   0.466   0.423   0.422   0.329   0.393   0.374   0.373   0.382   0.422   0.420   0.308   0.392   0.372   0.499   0.471   0.386   0.329   0.355   0.397   0.385   0.425   0.420   0.344   0.376   0.366
   161.00    0.461   0.495   0.456   0.383   0.319   0.351   0.362   0.415   0.453   0.454   0.326   0.339   0.403   0.341   0.383   0.336   0.395   0.468   0.410   0.414   0.467   0.501   0.415   0.434   0.430   0.404   0.446   0.449   0.298   0.328   0.377   0.422   0.336
   156.00    0.389   0.451   0.320   0.407   0.450   0.410   0.425   0.339   0.367   0.317   0.373   0.376   0.359   0.350   0.394   0.451   0.432   0.391   0.349   0.418   0.469   0.382   0.367   0.416   0.421   0.422   0.455   0.441   0.414   0.420   0.517   0.359   0.413
   151.00    0.389   0.405   0.342   0.483   0.487   0.333   0.388   0.366   0.366   0.364   0.401   0.339   0.390   0.345   0.406   0.428   0.391   0.359   0.389   0.367   0.336   0.391   0.351   0.393   0.369   0.448   0.489   0.326   0.392   0.409   0.500   0.440   0.433
   146.00    0.514   0.545   0.347   0.496   0.452   0.381   0.381   0.382   0.366   0.361   0.406   0.401   0.409   0.411   0.337   0.435   0.461   0.405   0.352   0.410   0.429   0.331   0.360   0.381   0.378   0.432   0.420   0.384   0.361   0.394   0.443   0.399   0.433
   141.00    0.481   0.543   0.477   0.504   0.480   0.435   0.448   0.357   0.418   0.419   0.352   0.330   0.371   0.367   0.404   0.406   0.372   0.357   0.339   0.434   0.385   0.437   0.336   0.310   0.423   0.424   0.320   0.390   0.372   0.333   0.365   0.372   0.479
   136.00    0.427   0.465   0.455   0.366   0.370   0.382   0.408   0.416   0.370   0.407   0.426   0.369   0.333   0.440   0.397   0.380   0.425   0.449   0.317   0.407   0.381   0.415   0.347   0.381   0.450   0.526   0.440   0.468   0.539   0.463   0.404   0.508   0.460
   131.00    0.435   0.430   0.530   0.405   0.437   0.324   0.338   0.311   0.373   0.377   0.393   0.330   0.343   0.419   0.452   0.439   0.380   0.385   0.446   0.420   0.366   0.315   0.344   0.360   0.407   0.479   0.419   0.401   0.452   0.474   0.459   0.384   0.518
   126.00    0.358   0.450   0.451   0.454   0.446   0.421   0.343   0.433   0.473   0.333   0.380   0.386   0.452   0.350   0.405   0.401   0.436   0.365   0.387   0.341   0.398   0.421   0.377   0.316   0.371   0.353   0.458   0.490   0.338   0.381   0.358   0.417   0.486
   121.00    0.386   0.419   0.314   0.424   0.361   0.392   0.335   0.407   0.368   0.337   0.354   0.413   0.341   0.433   0.451   0.435   0.506   0.306   0.427   0.416   0.413   0.364   0.368   0.373   0.338   0.365   0.351   0.408   0.440   0.391   0.389   0.386   0.454
   116.00    0.327   0.335   0.387   0.435   0.405   0.326   0.331   0.386   0.474   0.316   0.437   0.357   0.396   0.305   0.373   0.478   0.579   0.358   0.459   0.327   0.325   0.371   0.342   0.319   0.453   0.470   0.464   0.348   0.401   0.394   0.349   0.352   0.396
   111.00    0.488   0.377   0.353   0.361   0.374   0.333   0.498   0.578   0.537   0.364   0.464   0.353   0.387   0.354   0.318   0.441   0.484   0.590   0.483   0.504   0.315   0.336   0.465   0.434   0.465   0.442   0.349   0.405   0.331   0.392   0.368   0.349   0.368
   106.00    0.458   0.343   0.381   0.467   0.502   0.517   0.475   0.545   0.398   0.331   0.373   0.408   0.451   0.353   0.389   0.435   0.522   0.641   0.513   0.498   0.472   0.477   0.596   0.643   0.372   0.338   0.353   0.363   0.354   0.394   0.364   0.336   0.314
   101.00    0.382   0.421   0.478   0.457   0.413   0.387   0.482   0.443   0.555   0.454   0.293   0.365   0.465   0.488   0.330   0.385   0.461   0.517   0.535   0.479   0.420   0.474   0.499   0.545   0.546   0.371   0.337   0.362   0.323   0.371   0.400   0.465   0.421
    96.00    0.386   0.324   0.429   0.455   0.439   0.384   0.478   0.491   0.537   0.540   0.538   0.386   0.439   0.480   0.442   0.376   0.401   0.434   0.440   0.343   0.403   0.371   0.393   0.402   0.449   0.401   0.389   0.376   0.333   0.347   0.363   0.509   0.558
    91.00    0.508   0.366   0.333   0.435   0.397   0.393   0.378   0.407   0.485   0.420   0.458   0.415   0.419   0.420   0.455   0.432   0.441   0.413   0.384   0.362   0.344   0.355   0.386   0.348   0.412   0.459   0.376   0.424   0.469   0.352   0.351   0.453   0.506
    86.00    0.451   0.434   0.435   0.384   0.380   0.507   0.558   0.360   0.437   0.384   0.416   0.312   0.425   0.334   0.448   0.385   0.344   0.380   0.427   0.342   0.379   0.428   0.394   0.382   0.364   0.402   0.339   0.396   0.424   0.303   0.365   0.385   0.443
    81.00    0.364   0.383   0.301   0.352   0.421   0.500   0.488   0.294   0.423   0.444   0.409   0.381   0.490   0.309   0.460   0.482   0.420   0.441   0.373   0.437   0.499   0.370   0.430   0.390   0.373   0.425   0.334   0.361   0.292   0.370   0.359   0.412   0.374
    76.00    0.394   0.345   0.421   0.416   0.352   0.368   0.389   0.409   0.326   0.401   0.400   0.425   0.481   0.359   0.431   0.436   0.356   0.344   0.427   0.465   0.400   0.370   0.329   0.336   0.360   0.342   0.366   0.430   0.403   0.344   0.422   0.313   0.383
    71.00    0.525   0.423   0.492   0.444   0.504   0.466   0.365   0.456   0.460   0.314   0.352   0.389   0.464   0.393   0.364   0.395   0.345   0.349   0.322   0.421   0.319   0.477   0.437   0.497   0.343   0.359   0.361   0.359   0.398   0.431   0.460   0.354   0.413
    66.00    0.520   0.522   0.317   0.462   0.534   0.357   0.364   0.348   0.415   0.435   0.365   0.402   0.388   0.390   0.347   0.357   0.382   0.375   0.515   0.537   0.408   0.533   0.444   0.502   0.479   0.337   0.352   0.468   0.407   0.318   0.440   0.547   0.489
    61.00    0.452   0.471   0.485   0.474   0.488   0.403   0.331   0.450   0.413   0.331   0.431   0.490   0.396   0.321   0.378   0.400   0.372   0.440   0.495   0.505   0.378   0.463   0.479   0.502   0.358   0.383   0.442   0.470   0.298   0.378   0.362   0.407   0.473
    56.00    0.516   0.353   0.479   0.570   0.407   0.322   0.339   0.453   0.449   0.374   0.359   0.372   0.422   0.376   0.423   0.395   0.314   0.381   0.375   0.412   0.427   0.448   0.437   0.396   0.430   0.404   0.370   0.379   0.469   0.393   0.370   0.382   0.372
    51.00    0.409   0.497   0.421   0.506   0.476   0.356   0.440   0.428   0.421   0.396   0.341   0.389   0.448   0.450   0.440   0.335   0.377   0.386   0.446   0.346   0.416   0.306   0.414   0.398   0.381   0.326   0.382   0.426   0.409   0.484   0.439   0.383   0.352
    46.00    0.364   0.353   0.437   0.401   0.386   0.404   0.333   0.379   0.377   0.349   0.444   0.462   0.496   0.495   0.360   0.354   0.367   0.468   0.447   0.338   0.368   0.423   0.321   0.372   0.316   0.332   0.398   0.377   0.417   0.502   0.314   0.420   0.399
    41.00    0.422   0.462   0.570   0.605   0.514   0.521   0.444   0.386   0.423   0.348   0.419   0.473   0.517   0.467   0.474   0.434   0.381   0.437   0.433   0.469   0.336   0.358   0.406   0.330   0.457   0.385   0.466   0.371   0.392   0.492   0.382   0.431   0.408
    36.00    0.451   0.401   0.494   0.549   0.421   0.410   0.520   0.504   0.293   0.404   0.459   0.476   0.490   0.340   0.377   0.385   0.381   0.398   0.534   0.615   0.377   0.364   0.384   0.346   0.358   0.495   0.374   0.462   0.323   0.434   0.484   0.393   0.430
    31.00    0.472   0.427   0.417   0.491   0.495   0.374   0.431   0.467   0.332   0.352   0.324   0.446   0.406   0.332   0.329   0.405   0.426   0.452   0.494   0.549   0.536   0.311   0.366   0.325   0.425   0.532   0.462   0.442   0.495   0.410   0.358   0.442   0.422
    26.00    0.472   0.417   0.480   0.525   0.526   0.501   0.331   0.354   0.402   0.395   0.402   0.346   0.344   0.367   0.398   0.429   0.350   0.380   0.434   0.521   0.423   0.454   0.433   0.470   0.448   0.406   0.403   0.363   0.416   0.374   0.440   0.496   0.305
    21.00    0.433   0.370   0.399   0.416   0.412   0.412   0.330   0.338   0.388   0.496   0.316   0.357   0.407   0.371   0.350   0.364   0.337   0.423   0.351   0.513   0.540   0.460   0.360   0.441   0.413   0.465   0.432   0.341   0.429   0.496   0.526   0.403   0.452
    16.00    0.463   0.319   0.377   0.342   0.364   0.364   0.355   0.347   0.421   0.488   0.392   0.412   0.389   0.430   0.449   0.319   0.415   0.401   0.349   0.465   0.498   0.576   0.390   0.319   0.322   0.340   0.373   0.341   0.403   0.412   0.364   0.371   0.427
    11.00    0.466   0.332   0.323   0.331   0.418   0.361   0.451   0.381   0.379   0.409   0.476   0.323   0.391   0.461   0.469   0.323   0.404   0.407   0.375   0.332   0.414   0.446   0.440   0.396   0.395   0.390   0.350   0.392   0.341   0.335   0.390   0.410   0.387
     6.00    0.458   0.492   0.417   0.355   0.387   0.385   0.376   0.327   0.380   0.350   0.421   0.330   0.413   0.378   0.436   0.430   0.341   0.356   0.454   0.409   0.382   0.350   0.319   0.353   0.400   0.322   0.351   0.344   0.382   0.383   0.319   0.388   0.314
     1.00    0.412   0.453   0.363   0.407   0.394   0.411   0.339   0.367   0.396   0.371   0.378   0.357   0.453   0.407   0.466   0.385   0.349   0.345   0.435   0.475   0.383   0.414   0.342   0.431   0.394   0.473   0.357   0.370   0.319   0.381   0.435   0.365   0.369

   Mean standard deviation across all grid points:
      u component:    0.496 m/s
      v component:    0.512 m/s
      w component:    0.406 m/s


U-component (X) statistics from the interpolated hub point:

   Mean =  10.0559 m/s
   TI   =   4.1795 %


Processing complete.  1.7023 CPU seconds used.
