
This summary file was generated by TurbSim (from OpenFAST-v3.5.0-dirty) on 28-Nov-2023 at 21:21:30.


ERROR:  ReadInputFile:Invalid logical input for file "./Test/Cond00_v10.0_PL0.2_TI10/Case0_wdirp00/Seed_0/TurbSim/USRTimeSeries_T8.txt" occurred while trying to read Echo.

ABORTING PROGRAM.
