
This summary file was generated by TurbSim (from OpenFAST-v3.5.1-dirty) on 13-Dec-2023 at 09:06:55.


ERROR:  ReadInputFile:GetUSRTimeSeries:OpenFInpFile:The input file, "/Users/agupta/Projects/Tools/FlorisTools/SampleFiles/USRTimeSeries_T1.txt", was not found.

ABORTING PROGRAM.
